* Subcircuit definition of cell gf180mcu_fd_ip_sram__sram128x8m8wm1
.SUBCKT gf180mcu_fd_ip_sram__sram128x8m8wm1 A[6] A[5] A[4] A[3] A[2] A[1] A[0]
+ CEN CLK D[7] D[6] D[5] D[4] D[3] D[2] D[1] D[0] GWEN Q[7] Q[6] Q[5] Q[4]
+ Q[3] Q[2] Q[1] Q[0] VDD VSS WEN[7] WEN[6] WEN[5] WEN[4] WEN[3] WEN[2] WEN[1]
+ WEN[0]
** N=5565 EP=36 IP=3508 FDC=9725
M0 4646 VSS 733 VSS nfet_05v0 L=7.7e-07 W=6e-07 AD=2.81613e-13 AS=2.82e-13 PD=1.84258e-06 PS=2.14e-06 NRD=0.782258 NRS=0.783333 m=1 nf=1 $X=120390 $Y=176390 $D=2
M1 733 VSS 4648 VSS nfet_05v0 L=7.7e-07 W=6e-07 AD=2.82e-13 AS=2.81613e-13 PD=2.14e-06 PS=1.84258e-06 NRD=0.783333 NRS=0.782258 m=1 nf=1 $X=120390 $Y=256100 $D=2
M2 VSS 4645 4646 VSS nfet_05v0 L=6e-07 W=9.5e-07 AD=1.84565e-14 AS=1.18957e-13 PD=-7.88406e-08 PS=9.41159e-07 NRD=0.0204504 NRS=0.131808 m=1 nf=1 $X=120840 $Y=177840 $D=2
M3 VSS 4647 4648 VSS nfet_05v0 L=6e-07 W=9.5e-07 AD=1.84565e-14 AS=1.18957e-13 PD=-7.88406e-08 PS=9.41159e-07 NRD=0.0204504 NRS=0.131808 m=1 nf=1 $X=120840 $Y=254470 $D=2
M4 4645 4646 VSS VSS nfet_05v0 L=6e-07 W=9.5e-07 AD=1.18957e-13 AS=1.84565e-14 PD=9.41159e-07 PS=-7.88406e-08 NRD=0.131808 NRS=0.0204504 m=1 nf=1 $X=121980 $Y=177840 $D=2
M5 4647 4648 VSS VSS nfet_05v0 L=6e-07 W=9.5e-07 AD=1.18957e-13 AS=1.84565e-14 PD=9.41159e-07 PS=-7.88406e-08 NRD=0.131808 NRS=0.0204504 m=1 nf=1 $X=121980 $Y=254470 $D=2
M6 4645 VSS 732 VSS nfet_05v0 L=7.7e-07 W=6e-07 AD=2.81613e-13 AS=2.82e-13 PD=1.84258e-06 PS=2.14e-06 NRD=0.782258 NRS=0.783333 m=1 nf=1 $X=122430 $Y=176390 $D=2
M7 732 VSS 4647 VSS nfet_05v0 L=7.7e-07 W=6e-07 AD=2.82e-13 AS=2.81613e-13 PD=2.14e-06 PS=1.84258e-06 NRD=0.783333 NRS=0.782258 m=1 nf=1 $X=122430 $Y=256100 $D=2
M8 VSS 4854 4222 VSS nfet_05v0 L=6e-07 W=1e-05 AD=3.9e-12 AS=2.6e-12 PD=1.656e-05 PS=1.104e-05 NRD=0.156 NRS=0.104 m=1 nf=2 $X=168355 $Y=180895 $D=2
M9 4854 4826 VSS VSS nfet_05v0 L=6e-07 W=5e-06 AD=3.1e-12 AS=1.7e-12 PD=1.124e-05 PS=5.68e-06 NRD=0.124 NRS=0.068 m=1 nf=1 $X=168355 $Y=183295 $D=2
M10 VSS 4828 4856 VSS nfet_05v0 L=6e-07 W=5e-06 AD=1.7e-12 AS=3.1e-12 PD=5.68e-06 PS=1.124e-05 NRD=0.068 NRS=0.124 m=1 nf=1 $X=168355 $Y=213375 $D=2
M11 VSS 4856 4229 VSS nfet_05v0 L=6e-07 W=1e-05 AD=3e-12 AS=2.6e-12 PD=1.12e-05 PS=1.104e-05 NRD=0.12 NRS=0.104 m=1 nf=2 $X=168355 $Y=214655 $D=2
M12 VSS 4858 4230 VSS nfet_05v0 L=6e-07 W=1e-05 AD=3e-12 AS=2.6e-12 PD=1.12e-05 PS=1.104e-05 NRD=0.12 NRS=0.104 m=1 nf=2 $X=168355 $Y=216895 $D=2
M13 4858 4830 VSS VSS nfet_05v0 L=6e-07 W=5e-06 AD=3.1e-12 AS=1.7e-12 PD=1.124e-05 PS=5.68e-06 NRD=0.124 NRS=0.068 m=1 nf=1 $X=168355 $Y=219295 $D=2
M14 VSS 4832 4860 VSS nfet_05v0 L=6e-07 W=5e-06 AD=1.7e-12 AS=3.1e-12 PD=5.68e-06 PS=1.124e-05 NRD=0.068 NRS=0.124 m=1 nf=1 $X=168355 $Y=249375 $D=2
M15 VSS 4860 4237 VSS nfet_05v0 L=6e-07 W=1e-05 AD=3.9e-12 AS=2.6e-12 PD=1.656e-05 PS=1.104e-05 NRD=0.156 NRS=0.104 m=1 nf=2 $X=168355 $Y=250655 $D=2
M16 4826 4827 VSS VSS nfet_05v0 L=6e-07 W=2.2e-06 AD=9.68e-13 AS=9.68e-13 PD=5.28e-06 PS=5.28e-06 NRD=0.2 NRS=0.2 m=1 nf=1 $X=198635 $Y=180895 $D=2
M17 VSS 4829 4828 VSS nfet_05v0 L=6e-07 W=2.2e-06 AD=5.72e-13 AS=9.68e-13 PD=2.72e-06 PS=5.28e-06 NRD=0.118182 NRS=0.2 m=1 nf=1 $X=198635 $Y=215775 $D=2
M18 4830 4831 VSS VSS nfet_05v0 L=6e-07 W=2.2e-06 AD=9.68e-13 AS=5.72e-13 PD=5.28e-06 PS=2.72e-06 NRD=0.2 NRS=0.118182 m=1 nf=1 $X=198635 $Y=216895 $D=2
M19 VSS 4833 4832 VSS nfet_05v0 L=6e-07 W=2.2e-06 AD=9.68e-13 AS=9.68e-13 PD=5.28e-06 PS=5.28e-06 NRD=0.2 NRS=0.2 m=1 nf=1 $X=198635 $Y=251775 $D=2
M20 2 VDD 1 VSS nfet_05v0 L=6e-07 W=6.59e-06 AD=2.8996e-12 AS=2.8996e-12 PD=1.406e-05 PS=1.406e-05 NRD=0.0667678 NRS=0.0667678 m=1 nf=1 $X=204815 $Y=255000 $D=2
M21 5527 VDD VSS VSS nfet_05v0 L=6e-07 W=3.15e-06 AD=7.32375e-13 AS=2.079e-12 PD=3.615e-06 PS=7.62e-06 NRD=0.0738095 NRS=0.209524 m=1 nf=1 $X=218475 $Y=180950 $D=2
M22 5526 918 5527 VSS nfet_05v0 L=6e-07 W=3.15e-06 AD=8.6625e-14 AS=-8.6625e-14 PD=5.5e-08 PS=-5.5e-08 NRD=0.00873016 NRS=-0.00873016 m=1 nf=1 $X=218475 $Y=182015 $D=2
M23 4827 926 5526 VSS nfet_05v0 L=6e-07 W=3.15e-06 AD=2.25225e-12 AS=8.19e-13 PD=7.73e-06 PS=3.67e-06 NRD=0.226984 NRS=0.0825397 m=1 nf=1 $X=218475 $Y=183135 $D=2
M24 5528 919 4829 VSS nfet_05v0 L=6e-07 W=3.15e-06 AD=8.19e-13 AS=2.25225e-12 PD=3.67e-06 PS=7.73e-06 NRD=0.0825397 NRS=0.226984 m=1 nf=1 $X=218475 $Y=213535 $D=2
M25 5529 918 5528 VSS nfet_05v0 L=6e-07 W=3.15e-06 AD=-8.6625e-14 AS=8.6625e-14 PD=-5.5e-08 PS=5.5e-08 NRD=-0.00873016 NRS=0.00873016 m=1 nf=1 $X=218475 $Y=214655 $D=2
M26 VSS VDD 5529 VSS nfet_05v0 L=6e-07 W=3.15e-06 AD=2.59875e-13 AS=-2.59875e-13 PD=1.65e-07 PS=-1.65e-07 NRD=0.0261905 NRS=-0.0261905 m=1 nf=1 $X=218475 $Y=215720 $D=2
M27 5531 VDD VSS VSS nfet_05v0 L=6e-07 W=3.15e-06 AD=-2.59875e-13 AS=2.59875e-13 PD=-1.65e-07 PS=1.65e-07 NRD=-0.0261905 NRS=0.0261905 m=1 nf=1 $X=218475 $Y=216950 $D=2
M28 5530 917 5531 VSS nfet_05v0 L=6e-07 W=3.15e-06 AD=8.6625e-14 AS=-8.6625e-14 PD=5.5e-08 PS=-5.5e-08 NRD=0.00873016 NRS=-0.00873016 m=1 nf=1 $X=218475 $Y=218015 $D=2
M29 4831 926 5530 VSS nfet_05v0 L=6e-07 W=3.15e-06 AD=2.25225e-12 AS=8.19e-13 PD=7.73e-06 PS=3.67e-06 NRD=0.226984 NRS=0.0825397 m=1 nf=1 $X=218475 $Y=219135 $D=2
M30 5532 919 4833 VSS nfet_05v0 L=6e-07 W=3.15e-06 AD=8.19e-13 AS=2.25225e-12 PD=3.67e-06 PS=7.73e-06 NRD=0.0825397 NRS=0.226984 m=1 nf=1 $X=218475 $Y=249535 $D=2
M31 5533 917 5532 VSS nfet_05v0 L=6e-07 W=3.15e-06 AD=-8.6625e-14 AS=8.6625e-14 PD=-5.5e-08 PS=5.5e-08 NRD=-0.00873016 NRS=0.00873016 m=1 nf=1 $X=218475 $Y=250655 $D=2
M32 VSS VDD 5533 VSS nfet_05v0 L=6e-07 W=3.15e-06 AD=2.079e-12 AS=7.32375e-13 PD=7.62e-06 PS=3.615e-06 NRD=0.209524 NRS=0.0738095 m=1 nf=1 $X=218475 $Y=251720 $D=2
M33 VSS 1 787 VSS nfet_05v0 L=6e-07 W=1.36e-06 AD=3.536e-13 AS=5.984e-13 PD=1.88e-06 PS=3.6e-06 NRD=0.191176 NRS=0.323529 m=1 nf=1 $X=233770 $Y=54135 $D=2
M34 787 CLK VSS VSS nfet_05v0 L=6e-07 W=1.36e-06 AD=5.984e-13 AS=3.536e-13 PD=3.6e-06 PS=1.88e-06 NRD=0.323529 NRS=0.191176 m=1 nf=1 $X=234890 $Y=54135 $D=2
M35 616 619 VSS VSS nfet_05v0 L=6e-07 W=4.54e-06 AD=1.1804e-12 AS=1.9976e-12 PD=5.58e-06 PS=1.084e-05 NRD=0.229075 NRS=0.387665 m=1 nf=2 $X=242235 $Y=54135 $D=2
M36 281 865 VSS VSS nfet_05v0 L=1e-06 W=6e-07 AD=2.64e-13 AS=2.64e-13 PD=2.08e-06 PS=2.08e-06 NRD=0.733333 NRS=0.733333 m=1 nf=1 $X=243265 $Y=46010 $D=2
M37 CEN 787 619 VSS nfet_05v0 L=6e-07 W=2.27e-06 AD=9.988e-13 AS=9.988e-13 PD=5.42e-06 PS=5.42e-06 NRD=0.193833 NRS=0.193833 m=1 nf=1 $X=245925 $Y=54135 $D=2
M38 250 468 VSS VSS nfet_05v0 L=6e-07 W=4.99e-05 AD=1.47704e-11 AS=1.47704e-11 PD=6.284e-05 PS=6.284e-05 NRD=0.148297 NRS=0.148297 m=1 nf=5 $X=241995 $Y=72320 $D=2
M39 317 281 VSS VSS nfet_05v0 L=6e-07 W=7.5e-07 AD=3.3e-13 AS=3.3e-13 PD=2.38e-06 PS=2.38e-06 NRD=0.586667 NRS=0.586667 m=1 nf=1 $X=246495 $Y=46075 $D=2
M40 354 317 VSS VSS nfet_05v0 L=6e-07 W=3.02e-06 AD=1.3288e-12 AS=1.3288e-12 PD=6.92e-06 PS=6.92e-06 NRD=0.145695 NRS=0.145695 m=1 nf=1 $X=249065 $Y=46070 $D=2
M41 4811 354 VSS VSS nfet_05v0 L=6e-07 W=2.268e-05 AD=5.8968e-12 AS=1.34946e-11 PD=2.32e-05 PS=4.655e-05 NRD=0.0114638 NRS=0.0262346 m=1 nf=1 $X=256125 $Y=28435 $D=2
M42 VSS 4855 4238 VSS nfet_05v0 L=6e-07 W=1e-05 AD=3.9e-12 AS=2.6e-12 PD=1.656e-05 PS=1.104e-05 NRD=0.156 NRS=0.104 m=1 nf=2 $X=252270 $Y=180895 $D=2
M43 4855 4826 VSS VSS nfet_05v0 L=6e-07 W=5e-06 AD=3.1e-12 AS=1.7e-12 PD=1.124e-05 PS=5.68e-06 NRD=0.124 NRS=0.068 m=1 nf=1 $X=252270 $Y=183295 $D=2
M44 VSS 4828 4857 VSS nfet_05v0 L=6e-07 W=5e-06 AD=1.7e-12 AS=3.1e-12 PD=5.68e-06 PS=1.124e-05 NRD=0.068 NRS=0.124 m=1 nf=1 $X=252270 $Y=213375 $D=2
M45 VSS 4857 4245 VSS nfet_05v0 L=6e-07 W=1e-05 AD=3e-12 AS=2.6e-12 PD=1.12e-05 PS=1.104e-05 NRD=0.12 NRS=0.104 m=1 nf=2 $X=252270 $Y=214655 $D=2
M46 VSS 4859 4246 VSS nfet_05v0 L=6e-07 W=1e-05 AD=3e-12 AS=2.6e-12 PD=1.12e-05 PS=1.104e-05 NRD=0.12 NRS=0.104 m=1 nf=2 $X=252270 $Y=216895 $D=2
M47 4859 4830 VSS VSS nfet_05v0 L=6e-07 W=5e-06 AD=3.1e-12 AS=1.7e-12 PD=1.124e-05 PS=5.68e-06 NRD=0.124 NRS=0.068 m=1 nf=1 $X=252270 $Y=219295 $D=2
M48 VSS 4832 4861 VSS nfet_05v0 L=6e-07 W=5e-06 AD=1.7e-12 AS=3.1e-12 PD=5.68e-06 PS=1.124e-05 NRD=0.068 NRS=0.124 m=1 nf=1 $X=252270 $Y=249375 $D=2
M49 VSS 4861 4253 VSS nfet_05v0 L=6e-07 W=1e-05 AD=3.9e-12 AS=2.6e-12 PD=1.656e-05 PS=1.104e-05 NRD=0.156 NRS=0.104 m=1 nf=2 $X=252270 $Y=250655 $D=2
M50 4812 CLK 4811 VSS nfet_05v0 L=6e-07 W=2.268e-05 AD=0 AS=0 PD=0 PS=0 NRD=0 NRS=0 m=1 nf=1 $X=257245 $Y=28435 $D=2
M51 445 616 4812 VSS nfet_05v0 L=6e-07 W=2.268e-05 AD=1.33812e-11 AS=5.8968e-12 PD=4.654e-05 PS=2.32e-05 NRD=0.0260141 NRS=0.0114638 m=1 nf=1 $X=258365 $Y=28435 $D=2
M52 4813 495 VSS VSS nfet_05v0 L=6e-07 W=1.8145e-05 AD=4.7177e-12 AS=1.07963e-11 PD=1.8665e-05 PS=3.748e-05 NRD=0.014329 NRS=0.0327914 m=1 nf=1 $X=262120 $Y=29545 $D=2
M53 468 445 4813 VSS nfet_05v0 L=6e-07 W=1.8145e-05 AD=0 AS=0 PD=0 PS=0 NRD=0 NRS=0 m=1 nf=1 $X=263240 $Y=29545 $D=2
M54 4814 445 468 VSS nfet_05v0 L=6e-07 W=1.8145e-05 AD=0 AS=0 PD=0 PS=0 NRD=0 NRS=0 m=1 nf=1 $X=264360 $Y=29545 $D=2
M55 VSS 495 4814 VSS nfet_05v0 L=6e-07 W=1.8145e-05 AD=1.07055e-11 AS=4.7177e-12 PD=3.747e-05 PS=1.8665e-05 NRD=0.0325158 NRS=0.014329 m=1 nf=1 $X=265480 $Y=29545 $D=2
M56 4815 468 VSS VSS nfet_05v0 L=6e-07 W=4.54e-06 AD=1.16905e-12 AS=2.7013e-12 PD=5.055e-06 PS=1.027e-05 NRD=0.0567181 NRS=0.131057 m=1 nf=1 $X=268545 $Y=43150 $D=2
M57 495 607 4815 VSS nfet_05v0 L=6e-07 W=4.54e-06 AD=2.27e-14 AS=-2.27e-14 PD=1e-08 PS=-1e-08 NRD=0.00110132 NRS=-0.00110132 m=1 nf=1 $X=269660 $Y=43150 $D=2
M58 4816 607 495 VSS nfet_05v0 L=6e-07 W=4.54e-06 AD=-2.27e-14 AS=2.27e-14 PD=-1e-08 PS=1e-08 NRD=-0.00110132 NRS=0.00110132 m=1 nf=1 $X=270785 $Y=43150 $D=2
M59 VSS 468 4816 VSS nfet_05v0 L=6e-07 W=4.54e-06 AD=2.7013e-12 AS=1.16905e-12 PD=1.027e-05 PS=5.055e-06 NRD=0.131057 NRS=0.0567181 m=1 nf=1 $X=271900 $Y=43150 $D=2
M60 1 250 VSS VSS nfet_05v0 L=6e-07 W=0.0001474 AD=3.8324e-11 AS=4.09772e-11 PD=0.0001578 PS=0.00017326 NRD=0.705563 NRS=0.75441 m=1 nf=20 $X=253180 $Y=76320 $D=2
M61 4650 VSS 735 VSS nfet_05v0 L=7.7e-07 W=6e-07 AD=2.81613e-13 AS=2.82e-13 PD=1.84258e-06 PS=2.14e-06 NRD=0.782258 NRS=0.783333 m=1 nf=1 $X=304270 $Y=176390 $D=2
M62 735 VSS 4652 VSS nfet_05v0 L=7.7e-07 W=6e-07 AD=2.82e-13 AS=2.81613e-13 PD=2.14e-06 PS=1.84258e-06 NRD=0.783333 NRS=0.782258 m=1 nf=1 $X=304270 $Y=256100 $D=2
M63 VSS 4649 4650 VSS nfet_05v0 L=6e-07 W=9.5e-07 AD=1.84565e-14 AS=1.18957e-13 PD=-7.88406e-08 PS=9.41159e-07 NRD=0.0204504 NRS=0.131808 m=1 nf=1 $X=304720 $Y=177840 $D=2
M64 VSS 4651 4652 VSS nfet_05v0 L=6e-07 W=9.5e-07 AD=1.84565e-14 AS=1.18957e-13 PD=-7.88406e-08 PS=9.41159e-07 NRD=0.0204504 NRS=0.131808 m=1 nf=1 $X=304720 $Y=254470 $D=2
M65 4649 4650 VSS VSS nfet_05v0 L=6e-07 W=9.5e-07 AD=1.18957e-13 AS=1.84565e-14 PD=9.41159e-07 PS=-7.88406e-08 NRD=0.131808 NRS=0.0204504 m=1 nf=1 $X=305860 $Y=177840 $D=2
M66 4651 4652 VSS VSS nfet_05v0 L=6e-07 W=9.5e-07 AD=1.18957e-13 AS=1.84565e-14 PD=9.41159e-07 PS=-7.88406e-08 NRD=0.131808 NRS=0.0204504 m=1 nf=1 $X=305860 $Y=254470 $D=2
M67 4649 VSS 734 VSS nfet_05v0 L=7.7e-07 W=6e-07 AD=2.81613e-13 AS=2.82e-13 PD=1.84258e-06 PS=2.14e-06 NRD=0.782258 NRS=0.783333 m=1 nf=1 $X=306310 $Y=176390 $D=2
M68 734 VSS 4651 VSS nfet_05v0 L=7.7e-07 W=6e-07 AD=2.82e-13 AS=2.81613e-13 PD=2.14e-06 PS=1.84258e-06 NRD=0.783333 NRS=0.782258 m=1 nf=1 $X=306310 $Y=256100 $D=2
M69 4838 VSS 614 VSS nfet_05v0 L=7.7e-07 W=6e-07 AD=2.81613e-13 AS=2.82e-13 PD=1.84258e-06 PS=2.14e-06 NRD=0.782258 NRS=0.783333 m=1 nf=1 $X=418270 $Y=176390 $D=2
M70 614 VSS 4840 VSS nfet_05v0 L=7.7e-07 W=6e-07 AD=-2.739e-13 AS=1.416e-13 PD=-1.70545e-06 PS=8.14545e-07 NRD=-0.760833 NRS=0.393333 m=1 nf=1 $X=418270 $Y=193100 $D=2
M71 4842 VSS 614 VSS nfet_05v0 L=7.7e-07 W=6e-07 AD=1.416e-13 AS=-2.739e-13 PD=8.14545e-07 PS=-1.70545e-06 NRD=0.393333 NRS=-0.760833 m=1 nf=1 $X=418270 $Y=194390 $D=2
M72 614 VSS 4844 VSS nfet_05v0 L=7.7e-07 W=6e-07 AD=-2.739e-13 AS=1.416e-13 PD=-1.70545e-06 PS=8.14545e-07 NRD=-0.760833 NRS=0.393333 m=1 nf=1 $X=418270 $Y=211100 $D=2
M73 4846 VSS 614 VSS nfet_05v0 L=7.7e-07 W=6e-07 AD=1.416e-13 AS=-2.739e-13 PD=8.14545e-07 PS=-1.70545e-06 NRD=0.393333 NRS=-0.760833 m=1 nf=1 $X=418270 $Y=212390 $D=2
M74 614 VSS 4848 VSS nfet_05v0 L=7.7e-07 W=6e-07 AD=-2.739e-13 AS=1.416e-13 PD=-1.70545e-06 PS=8.14545e-07 NRD=-0.760833 NRS=0.393333 m=1 nf=1 $X=418270 $Y=229100 $D=2
M75 4850 VSS 614 VSS nfet_05v0 L=7.7e-07 W=6e-07 AD=1.416e-13 AS=-2.739e-13 PD=8.14545e-07 PS=-1.70545e-06 NRD=0.393333 NRS=-0.760833 m=1 nf=1 $X=418270 $Y=230390 $D=2
M76 614 861 4852 VSS nfet_05v0 L=7.7e-07 W=6e-07 AD=-2.739e-13 AS=1.416e-13 PD=-1.70545e-06 PS=8.14545e-07 NRD=-0.760833 NRS=0.393333 m=1 nf=1 $X=418270 $Y=247100 $D=2
M77 4834 861 614 VSS nfet_05v0 L=7.7e-07 W=6e-07 AD=1.416e-13 AS=-2.739e-13 PD=8.14545e-07 PS=-1.70545e-06 NRD=0.393333 NRS=-0.760833 m=1 nf=1 $X=418270 $Y=248390 $D=2
M78 614 861 4836 VSS nfet_05v0 L=7.7e-07 W=6e-07 AD=2.82e-13 AS=2.81613e-13 PD=2.14e-06 PS=1.84258e-06 NRD=0.783333 NRS=0.782258 m=1 nf=1 $X=418270 $Y=256100 $D=2
M79 VSS VDD 4838 VSS nfet_05v0 L=6e-07 W=9.5e-07 AD=1.84565e-14 AS=1.18957e-13 PD=-7.88406e-08 PS=9.41159e-07 NRD=0.0204504 NRS=0.131808 m=1 nf=1 $X=418720 $Y=177840 $D=2
M80 VSS VDD 4840 VSS nfet_05v0 L=6e-07 W=9.5e-07 AD=1.84565e-14 AS=1.18957e-13 PD=-7.88406e-08 PS=9.41159e-07 NRD=0.0204504 NRS=0.131808 m=1 nf=1 $X=418720 $Y=191470 $D=2
M81 VSS VDD 4842 VSS nfet_05v0 L=6e-07 W=9.5e-07 AD=1.84565e-14 AS=1.18957e-13 PD=-7.88406e-08 PS=9.41159e-07 NRD=0.0204504 NRS=0.131808 m=1 nf=1 $X=418720 $Y=195840 $D=2
M82 VSS VDD 4844 VSS nfet_05v0 L=6e-07 W=9.5e-07 AD=1.84565e-14 AS=1.18957e-13 PD=-7.88406e-08 PS=9.41159e-07 NRD=0.0204504 NRS=0.131808 m=1 nf=1 $X=418720 $Y=209470 $D=2
M83 VSS VDD 4846 VSS nfet_05v0 L=6e-07 W=9.5e-07 AD=1.84565e-14 AS=1.18957e-13 PD=-7.88406e-08 PS=9.41159e-07 NRD=0.0204504 NRS=0.131808 m=1 nf=1 $X=418720 $Y=213840 $D=2
M84 VSS VDD 4848 VSS nfet_05v0 L=6e-07 W=9.5e-07 AD=1.84565e-14 AS=1.18957e-13 PD=-7.88406e-08 PS=9.41159e-07 NRD=0.0204504 NRS=0.131808 m=1 nf=1 $X=418720 $Y=227470 $D=2
M85 VSS VDD 4850 VSS nfet_05v0 L=6e-07 W=9.5e-07 AD=1.84565e-14 AS=1.18957e-13 PD=-7.88406e-08 PS=9.41159e-07 NRD=0.0204504 NRS=0.131808 m=1 nf=1 $X=418720 $Y=231840 $D=2
M86 VSS VDD 4852 VSS nfet_05v0 L=6e-07 W=9.5e-07 AD=1.84565e-14 AS=1.18957e-13 PD=-7.88406e-08 PS=9.41159e-07 NRD=0.0204504 NRS=0.131808 m=1 nf=1 $X=418720 $Y=245470 $D=2
M87 VSS VDD 4834 VSS nfet_05v0 L=6e-07 W=9.5e-07 AD=1.84565e-14 AS=1.18957e-13 PD=-7.88406e-08 PS=9.41159e-07 NRD=0.0204504 NRS=0.131808 m=1 nf=1 $X=418720 $Y=249840 $D=2
M88 VSS VDD 4836 VSS nfet_05v0 L=6e-07 W=9.5e-07 AD=1.84565e-14 AS=1.18957e-13 PD=-7.88406e-08 PS=9.41159e-07 NRD=0.0204504 NRS=0.131808 m=1 nf=1 $X=418720 $Y=254470 $D=2
M89 4839 VSS VSS VSS nfet_05v0 L=6e-07 W=9.5e-07 AD=1.18957e-13 AS=1.84565e-14 PD=9.41159e-07 PS=-7.88406e-08 NRD=0.131808 NRS=0.0204504 m=1 nf=1 $X=419860 $Y=177840 $D=2
M90 4841 VSS VSS VSS nfet_05v0 L=6e-07 W=9.5e-07 AD=1.18957e-13 AS=1.84565e-14 PD=9.41159e-07 PS=-7.88406e-08 NRD=0.131808 NRS=0.0204504 m=1 nf=1 $X=419860 $Y=191470 $D=2
M91 4843 VSS VSS VSS nfet_05v0 L=6e-07 W=9.5e-07 AD=1.18957e-13 AS=1.84565e-14 PD=9.41159e-07 PS=-7.88406e-08 NRD=0.131808 NRS=0.0204504 m=1 nf=1 $X=419860 $Y=195840 $D=2
M92 4845 VSS VSS VSS nfet_05v0 L=6e-07 W=9.5e-07 AD=1.18957e-13 AS=1.84565e-14 PD=9.41159e-07 PS=-7.88406e-08 NRD=0.131808 NRS=0.0204504 m=1 nf=1 $X=419860 $Y=209470 $D=2
M93 4847 VSS VSS VSS nfet_05v0 L=6e-07 W=9.5e-07 AD=1.18957e-13 AS=1.84565e-14 PD=9.41159e-07 PS=-7.88406e-08 NRD=0.131808 NRS=0.0204504 m=1 nf=1 $X=419860 $Y=213840 $D=2
M94 4849 VSS VSS VSS nfet_05v0 L=6e-07 W=9.5e-07 AD=1.18957e-13 AS=1.84565e-14 PD=9.41159e-07 PS=-7.88406e-08 NRD=0.131808 NRS=0.0204504 m=1 nf=1 $X=419860 $Y=227470 $D=2
M95 4851 VSS VSS VSS nfet_05v0 L=6e-07 W=9.5e-07 AD=1.18957e-13 AS=1.84565e-14 PD=9.41159e-07 PS=-7.88406e-08 NRD=0.131808 NRS=0.0204504 m=1 nf=1 $X=419860 $Y=231840 $D=2
M96 4853 VSS VSS VSS nfet_05v0 L=6e-07 W=9.5e-07 AD=1.18957e-13 AS=1.84565e-14 PD=9.41159e-07 PS=-7.88406e-08 NRD=0.131808 NRS=0.0204504 m=1 nf=1 $X=419860 $Y=245470 $D=2
M97 4835 VSS VSS VSS nfet_05v0 L=6e-07 W=9.5e-07 AD=1.18957e-13 AS=1.84565e-14 PD=9.41159e-07 PS=-7.88406e-08 NRD=0.131808 NRS=0.0204504 m=1 nf=1 $X=419860 $Y=249840 $D=2
M98 4837 VSS VSS VSS nfet_05v0 L=6e-07 W=9.5e-07 AD=1.18957e-13 AS=1.84565e-14 PD=9.41159e-07 PS=-7.88406e-08 NRD=0.131808 NRS=0.0204504 m=1 nf=1 $X=419860 $Y=254470 $D=2
M99 606 614 VSS VSS nfet_05v0 L=6e-07 W=2.76e-06 AD=7.176e-13 AS=1.2144e-12 PD=3.8e-06 PS=7.28e-06 NRD=0.376812 NRS=0.637681 m=1 nf=2 $X=418770 $Y=94540 $D=2
M100 607 606 VSS VSS nfet_05v0 L=6e-07 W=1.7e-05 AD=4.42e-12 AS=7.48e-12 PD=1.804e-05 PS=3.576e-05 NRD=0.0611765 NRS=0.103529 m=1 nf=2 $X=418790 $Y=79115 $D=2
M101 613 VDD VSS VSS nfet_05v0 L=6e-07 W=1.14e-06 AD=2.964e-13 AS=5.016e-13 PD=2.18e-06 PS=4.04e-06 NRD=0.912281 NRS=1.54386 m=1 nf=2 $X=419015 $Y=110805 $D=2
M102 4839 VSS 615 VSS nfet_05v0 L=7.7e-07 W=6e-07 AD=2.81613e-13 AS=2.82e-13 PD=1.84258e-06 PS=2.14e-06 NRD=0.782258 NRS=0.783333 m=1 nf=1 $X=420310 $Y=176390 $D=2
M103 615 VSS 4841 VSS nfet_05v0 L=7.7e-07 W=6e-07 AD=-2.739e-13 AS=1.416e-13 PD=-1.70545e-06 PS=8.14545e-07 NRD=-0.760833 NRS=0.393333 m=1 nf=1 $X=420310 $Y=193100 $D=2
M104 4843 VSS 615 VSS nfet_05v0 L=7.7e-07 W=6e-07 AD=1.416e-13 AS=-2.739e-13 PD=8.14545e-07 PS=-1.70545e-06 NRD=0.393333 NRS=-0.760833 m=1 nf=1 $X=420310 $Y=194390 $D=2
M105 615 VSS 4845 VSS nfet_05v0 L=7.7e-07 W=6e-07 AD=-2.739e-13 AS=1.416e-13 PD=-1.70545e-06 PS=8.14545e-07 NRD=-0.760833 NRS=0.393333 m=1 nf=1 $X=420310 $Y=211100 $D=2
M106 4847 VSS 615 VSS nfet_05v0 L=7.7e-07 W=6e-07 AD=1.416e-13 AS=-2.739e-13 PD=8.14545e-07 PS=-1.70545e-06 NRD=0.393333 NRS=-0.760833 m=1 nf=1 $X=420310 $Y=212390 $D=2
M107 615 VSS 4849 VSS nfet_05v0 L=7.7e-07 W=6e-07 AD=-2.739e-13 AS=1.416e-13 PD=-1.70545e-06 PS=8.14545e-07 NRD=-0.760833 NRS=0.393333 m=1 nf=1 $X=420310 $Y=229100 $D=2
M108 4851 VSS 615 VSS nfet_05v0 L=7.7e-07 W=6e-07 AD=1.416e-13 AS=-2.739e-13 PD=8.14545e-07 PS=-1.70545e-06 NRD=0.393333 NRS=-0.760833 m=1 nf=1 $X=420310 $Y=230390 $D=2
M109 615 861 4853 VSS nfet_05v0 L=7.7e-07 W=6e-07 AD=-2.739e-13 AS=1.416e-13 PD=-1.70545e-06 PS=8.14545e-07 NRD=-0.760833 NRS=0.393333 m=1 nf=1 $X=420310 $Y=247100 $D=2
M110 4835 861 615 VSS nfet_05v0 L=7.7e-07 W=6e-07 AD=1.416e-13 AS=-2.739e-13 PD=8.14545e-07 PS=-1.70545e-06 NRD=0.393333 NRS=-0.760833 m=1 nf=1 $X=420310 $Y=248390 $D=2
M111 615 861 4837 VSS nfet_05v0 L=7.7e-07 W=6e-07 AD=2.82e-13 AS=2.81613e-13 PD=2.14e-06 PS=1.84258e-06 NRD=0.783333 NRS=0.782258 m=1 nf=1 $X=420310 $Y=256100 $D=2
M112 VDD 4482 4484 VDD pfet_05v0 L=6e-07 W=6e-07 AD=8.52e-13 AS=2.7e-13 PD=5.32e-06 PS=2.1e-06 NRD=2.36667 NRS=0.75 m=1 nf=1 $X=12840 $Y=179690 $D=8
M113 VDD 4891 4890 VDD pfet_05v0 L=6e-07 W=6e-07 AD=8.52e-13 AS=2.7e-13 PD=5.32e-06 PS=2.1e-06 NRD=2.36667 NRS=0.75 m=1 nf=1 $X=12840 $Y=180970 $D=8
M114 VDD 4899 4898 VDD pfet_05v0 L=6e-07 W=6e-07 AD=8.52e-13 AS=2.7e-13 PD=5.32e-06 PS=2.1e-06 NRD=2.36667 NRS=0.75 m=1 nf=1 $X=12840 $Y=215690 $D=8
M115 VDD 4955 4954 VDD pfet_05v0 L=6e-07 W=6e-07 AD=8.52e-13 AS=2.7e-13 PD=5.32e-06 PS=2.1e-06 NRD=2.36667 NRS=0.75 m=1 nf=1 $X=12840 $Y=216970 $D=8
M116 VDD 4963 4962 VDD pfet_05v0 L=6e-07 W=6e-07 AD=8.52e-13 AS=2.7e-13 PD=5.32e-06 PS=2.1e-06 NRD=2.36667 NRS=0.75 m=1 nf=1 $X=12840 $Y=251690 $D=8
M117 VDD 4498 4500 VDD pfet_05v0 L=6e-07 W=6e-07 AD=8.52e-13 AS=2.7e-13 PD=5.32e-06 PS=2.1e-06 NRD=2.36667 NRS=0.75 m=1 nf=1 $X=12840 $Y=252970 $D=8
M118 4482 4484 VDD VDD pfet_05v0 L=6e-07 W=6e-07 AD=2.7e-13 AS=8.52e-13 PD=2.1e-06 PS=5.32e-06 NRD=0.75 NRS=2.36667 m=1 nf=1 $X=13980 $Y=179690 $D=8
M119 4891 4890 VDD VDD pfet_05v0 L=6e-07 W=6e-07 AD=2.7e-13 AS=8.52e-13 PD=2.1e-06 PS=5.32e-06 NRD=0.75 NRS=2.36667 m=1 nf=1 $X=13980 $Y=180970 $D=8
M120 4899 4898 VDD VDD pfet_05v0 L=6e-07 W=6e-07 AD=2.7e-13 AS=8.52e-13 PD=2.1e-06 PS=5.32e-06 NRD=0.75 NRS=2.36667 m=1 nf=1 $X=13980 $Y=215690 $D=8
M121 4955 4954 VDD VDD pfet_05v0 L=6e-07 W=6e-07 AD=2.7e-13 AS=8.52e-13 PD=2.1e-06 PS=5.32e-06 NRD=0.75 NRS=2.36667 m=1 nf=1 $X=13980 $Y=216970 $D=8
M122 4963 4962 VDD VDD pfet_05v0 L=6e-07 W=6e-07 AD=2.7e-13 AS=8.52e-13 PD=2.1e-06 PS=5.32e-06 NRD=0.75 NRS=2.36667 m=1 nf=1 $X=13980 $Y=251690 $D=8
M123 4498 4500 VDD VDD pfet_05v0 L=6e-07 W=6e-07 AD=2.7e-13 AS=8.52e-13 PD=2.1e-06 PS=5.32e-06 NRD=0.75 NRS=2.36667 m=1 nf=1 $X=13980 $Y=252970 $D=8
M124 4699 4218 VDD VDD pfet_05v0 L=6e-07 W=6.82e-06 AD=1.7732e-12 AS=5.2173e-12 PD=7.86e-06 PS=1.329e-05 NRD=0.152493 NRS=0.44868 m=1 nf=2 $X=13620 $Y=160970 $D=8
M125 4700 4218 VDD VDD pfet_05v0 L=6e-07 W=6.82e-06 AD=1.7732e-12 AS=5.2173e-12 PD=7.86e-06 PS=1.329e-05 NRD=0.152493 NRS=0.44868 m=1 nf=2 $X=13620 $Y=164845 $D=8
M126 4862 4664 VDD VDD pfet_05v0 L=6e-07 W=2.97e-06 AD=9.801e-13 AS=1.8414e-12 PD=4.29e-06 PS=6.935e-06 NRD=0.444444 NRS=0.835017 m=1 nf=2 $X=13835 $Y=112830 $D=8
M127 VDD 4478 4480 VDD pfet_05v0 L=6e-07 W=6e-07 AD=8.52e-13 AS=2.7e-13 PD=5.32e-06 PS=2.1e-06 NRD=2.36667 NRS=0.75 m=1 nf=1 $X=15840 $Y=179690 $D=8
M128 VDD 4893 4892 VDD pfet_05v0 L=6e-07 W=6e-07 AD=8.52e-13 AS=2.7e-13 PD=5.32e-06 PS=2.1e-06 NRD=2.36667 NRS=0.75 m=1 nf=1 $X=15840 $Y=180970 $D=8
M129 VDD 4901 4900 VDD pfet_05v0 L=6e-07 W=6e-07 AD=8.52e-13 AS=2.7e-13 PD=5.32e-06 PS=2.1e-06 NRD=2.36667 NRS=0.75 m=1 nf=1 $X=15840 $Y=215690 $D=8
M130 VDD 4957 4956 VDD pfet_05v0 L=6e-07 W=6e-07 AD=8.52e-13 AS=2.7e-13 PD=5.32e-06 PS=2.1e-06 NRD=2.36667 NRS=0.75 m=1 nf=1 $X=15840 $Y=216970 $D=8
M131 VDD 4965 4964 VDD pfet_05v0 L=6e-07 W=6e-07 AD=8.52e-13 AS=2.7e-13 PD=5.32e-06 PS=2.1e-06 NRD=2.36667 NRS=0.75 m=1 nf=1 $X=15840 $Y=251690 $D=8
M132 VDD 4494 4496 VDD pfet_05v0 L=6e-07 W=6e-07 AD=8.52e-13 AS=2.7e-13 PD=5.32e-06 PS=2.1e-06 NRD=2.36667 NRS=0.75 m=1 nf=1 $X=15840 $Y=252970 $D=8
M133 4478 4480 VDD VDD pfet_05v0 L=6e-07 W=6e-07 AD=2.7e-13 AS=8.52e-13 PD=2.1e-06 PS=5.32e-06 NRD=0.75 NRS=2.36667 m=1 nf=1 $X=16980 $Y=179690 $D=8
M134 4893 4892 VDD VDD pfet_05v0 L=6e-07 W=6e-07 AD=2.7e-13 AS=8.52e-13 PD=2.1e-06 PS=5.32e-06 NRD=0.75 NRS=2.36667 m=1 nf=1 $X=16980 $Y=180970 $D=8
M135 4901 4900 VDD VDD pfet_05v0 L=6e-07 W=6e-07 AD=2.7e-13 AS=8.52e-13 PD=2.1e-06 PS=5.32e-06 NRD=0.75 NRS=2.36667 m=1 nf=1 $X=16980 $Y=215690 $D=8
M136 4957 4956 VDD VDD pfet_05v0 L=6e-07 W=6e-07 AD=2.7e-13 AS=8.52e-13 PD=2.1e-06 PS=5.32e-06 NRD=0.75 NRS=2.36667 m=1 nf=1 $X=16980 $Y=216970 $D=8
M137 4965 4964 VDD VDD pfet_05v0 L=6e-07 W=6e-07 AD=2.7e-13 AS=8.52e-13 PD=2.1e-06 PS=5.32e-06 NRD=0.75 NRS=2.36667 m=1 nf=1 $X=16980 $Y=251690 $D=8
M138 4494 4496 VDD VDD pfet_05v0 L=6e-07 W=6e-07 AD=2.7e-13 AS=8.52e-13 PD=2.1e-06 PS=5.32e-06 NRD=0.75 NRS=2.36667 m=1 nf=1 $X=16980 $Y=252970 $D=8
M139 4863 4663 VDD VDD pfet_05v0 L=6e-07 W=2.97e-06 AD=9.801e-13 AS=1.83769e-12 PD=4.29e-06 PS=5.445e-06 NRD=0.444444 NRS=0.833333 m=1 nf=2 $X=16365 $Y=112830 $D=8
M140 4702 4218 VDD VDD pfet_05v0 L=6e-07 W=6.82e-06 AD=1.7732e-12 AS=4.69727e-12 PD=7.86e-06 PS=9.575e-06 NRD=0.152493 NRS=0.403959 m=1 nf=2 $X=16720 $Y=160970 $D=8
M141 4701 4218 VDD VDD pfet_05v0 L=6e-07 W=6.82e-06 AD=1.7732e-12 AS=4.69727e-12 PD=7.86e-06 PS=9.575e-06 NRD=0.152493 NRS=0.403959 m=1 nf=2 $X=16720 $Y=164845 $D=8
M142 VDD 4474 4476 VDD pfet_05v0 L=6e-07 W=6e-07 AD=8.52e-13 AS=2.7e-13 PD=5.32e-06 PS=2.1e-06 NRD=2.36667 NRS=0.75 m=1 nf=1 $X=18840 $Y=179690 $D=8
M143 VDD 4895 4894 VDD pfet_05v0 L=6e-07 W=6e-07 AD=8.52e-13 AS=2.7e-13 PD=5.32e-06 PS=2.1e-06 NRD=2.36667 NRS=0.75 m=1 nf=1 $X=18840 $Y=180970 $D=8
M144 VDD 4903 4902 VDD pfet_05v0 L=6e-07 W=6e-07 AD=8.52e-13 AS=2.7e-13 PD=5.32e-06 PS=2.1e-06 NRD=2.36667 NRS=0.75 m=1 nf=1 $X=18840 $Y=215690 $D=8
M145 VDD 4959 4958 VDD pfet_05v0 L=6e-07 W=6e-07 AD=8.52e-13 AS=2.7e-13 PD=5.32e-06 PS=2.1e-06 NRD=2.36667 NRS=0.75 m=1 nf=1 $X=18840 $Y=216970 $D=8
M146 VDD 4967 4966 VDD pfet_05v0 L=6e-07 W=6e-07 AD=8.52e-13 AS=2.7e-13 PD=5.32e-06 PS=2.1e-06 NRD=2.36667 NRS=0.75 m=1 nf=1 $X=18840 $Y=251690 $D=8
M147 VDD 4490 4492 VDD pfet_05v0 L=6e-07 W=6e-07 AD=8.52e-13 AS=2.7e-13 PD=5.32e-06 PS=2.1e-06 NRD=2.36667 NRS=0.75 m=1 nf=1 $X=18840 $Y=252970 $D=8
M148 4474 4476 VDD VDD pfet_05v0 L=6e-07 W=6e-07 AD=2.7e-13 AS=8.52e-13 PD=2.1e-06 PS=5.32e-06 NRD=0.75 NRS=2.36667 m=1 nf=1 $X=19980 $Y=179690 $D=8
M149 4895 4894 VDD VDD pfet_05v0 L=6e-07 W=6e-07 AD=2.7e-13 AS=8.52e-13 PD=2.1e-06 PS=5.32e-06 NRD=0.75 NRS=2.36667 m=1 nf=1 $X=19980 $Y=180970 $D=8
M150 4903 4902 VDD VDD pfet_05v0 L=6e-07 W=6e-07 AD=2.7e-13 AS=8.52e-13 PD=2.1e-06 PS=5.32e-06 NRD=0.75 NRS=2.36667 m=1 nf=1 $X=19980 $Y=215690 $D=8
M151 4959 4958 VDD VDD pfet_05v0 L=6e-07 W=6e-07 AD=2.7e-13 AS=8.52e-13 PD=2.1e-06 PS=5.32e-06 NRD=0.75 NRS=2.36667 m=1 nf=1 $X=19980 $Y=216970 $D=8
M152 4967 4966 VDD VDD pfet_05v0 L=6e-07 W=6e-07 AD=2.7e-13 AS=8.52e-13 PD=2.1e-06 PS=5.32e-06 NRD=0.75 NRS=2.36667 m=1 nf=1 $X=19980 $Y=251690 $D=8
M153 4490 4492 VDD VDD pfet_05v0 L=6e-07 W=6e-07 AD=2.7e-13 AS=8.52e-13 PD=2.1e-06 PS=5.32e-06 NRD=0.75 NRS=2.36667 m=1 nf=1 $X=19980 $Y=252970 $D=8
M154 4703 4218 VDD VDD pfet_05v0 L=6e-07 W=6.82e-06 AD=1.7732e-12 AS=4.69727e-12 PD=7.86e-06 PS=9.575e-06 NRD=0.152493 NRS=0.403959 m=1 nf=2 $X=19815 $Y=160970 $D=8
M155 4704 4218 VDD VDD pfet_05v0 L=6e-07 W=6.82e-06 AD=1.7732e-12 AS=4.69727e-12 PD=7.86e-06 PS=9.575e-06 NRD=0.152493 NRS=0.403959 m=1 nf=2 $X=19815 $Y=164845 $D=8
M156 4864 4662 VDD VDD pfet_05v0 L=6e-07 W=2.97e-06 AD=9.801e-13 AS=1.83769e-12 PD=4.29e-06 PS=5.445e-06 NRD=0.444444 NRS=0.833333 m=1 nf=2 $X=20030 $Y=112830 $D=8
M157 VDD 4470 4472 VDD pfet_05v0 L=6e-07 W=6e-07 AD=8.52e-13 AS=2.7e-13 PD=5.32e-06 PS=2.1e-06 NRD=2.36667 NRS=0.75 m=1 nf=1 $X=21840 $Y=179690 $D=8
M158 VDD 4897 4896 VDD pfet_05v0 L=6e-07 W=6e-07 AD=8.52e-13 AS=2.7e-13 PD=5.32e-06 PS=2.1e-06 NRD=2.36667 NRS=0.75 m=1 nf=1 $X=21840 $Y=180970 $D=8
M159 VDD 4905 4904 VDD pfet_05v0 L=6e-07 W=6e-07 AD=8.52e-13 AS=2.7e-13 PD=5.32e-06 PS=2.1e-06 NRD=2.36667 NRS=0.75 m=1 nf=1 $X=21840 $Y=215690 $D=8
M160 VDD 4961 4960 VDD pfet_05v0 L=6e-07 W=6e-07 AD=8.52e-13 AS=2.7e-13 PD=5.32e-06 PS=2.1e-06 NRD=2.36667 NRS=0.75 m=1 nf=1 $X=21840 $Y=216970 $D=8
M161 VDD 4969 4968 VDD pfet_05v0 L=6e-07 W=6e-07 AD=8.52e-13 AS=2.7e-13 PD=5.32e-06 PS=2.1e-06 NRD=2.36667 NRS=0.75 m=1 nf=1 $X=21840 $Y=251690 $D=8
M162 VDD 4486 4488 VDD pfet_05v0 L=6e-07 W=6e-07 AD=8.52e-13 AS=2.7e-13 PD=5.32e-06 PS=2.1e-06 NRD=2.36667 NRS=0.75 m=1 nf=1 $X=21840 $Y=252970 $D=8
M163 4470 4472 VDD VDD pfet_05v0 L=6e-07 W=6e-07 AD=2.7e-13 AS=8.52e-13 PD=2.1e-06 PS=5.32e-06 NRD=0.75 NRS=2.36667 m=1 nf=1 $X=22980 $Y=179690 $D=8
M164 4897 4896 VDD VDD pfet_05v0 L=6e-07 W=6e-07 AD=2.7e-13 AS=8.52e-13 PD=2.1e-06 PS=5.32e-06 NRD=0.75 NRS=2.36667 m=1 nf=1 $X=22980 $Y=180970 $D=8
M165 4905 4904 VDD VDD pfet_05v0 L=6e-07 W=6e-07 AD=2.7e-13 AS=8.52e-13 PD=2.1e-06 PS=5.32e-06 NRD=0.75 NRS=2.36667 m=1 nf=1 $X=22980 $Y=215690 $D=8
M166 4961 4960 VDD VDD pfet_05v0 L=6e-07 W=6e-07 AD=2.7e-13 AS=8.52e-13 PD=2.1e-06 PS=5.32e-06 NRD=0.75 NRS=2.36667 m=1 nf=1 $X=22980 $Y=216970 $D=8
M167 4969 4968 VDD VDD pfet_05v0 L=6e-07 W=6e-07 AD=2.7e-13 AS=8.52e-13 PD=2.1e-06 PS=5.32e-06 NRD=0.75 NRS=2.36667 m=1 nf=1 $X=22980 $Y=251690 $D=8
M168 4486 4488 VDD VDD pfet_05v0 L=6e-07 W=6e-07 AD=2.7e-13 AS=8.52e-13 PD=2.1e-06 PS=5.32e-06 NRD=0.75 NRS=2.36667 m=1 nf=1 $X=22980 $Y=252970 $D=8
M169 4865 4661 VDD VDD pfet_05v0 L=6e-07 W=2.97e-06 AD=9.801e-13 AS=1.83397e-12 PD=4.29e-06 PS=5.44e-06 NRD=0.444444 NRS=0.83165 m=1 nf=2 $X=22560 $Y=112830 $D=8
M170 4706 4218 VDD VDD pfet_05v0 L=6e-07 W=6.82e-06 AD=1.7732e-12 AS=4.68875e-12 PD=7.86e-06 PS=9.57e-06 NRD=0.152493 NRS=0.403226 m=1 nf=2 $X=22915 $Y=160970 $D=8
M171 4705 4218 VDD VDD pfet_05v0 L=6e-07 W=6.82e-06 AD=1.7732e-12 AS=4.68875e-12 PD=7.86e-06 PS=9.57e-06 NRD=0.152493 NRS=0.403226 m=1 nf=2 $X=22915 $Y=164845 $D=8
M172 VDD 4266 4268 VDD pfet_05v0 L=6e-07 W=6e-07 AD=8.52e-13 AS=2.7e-13 PD=5.32e-06 PS=2.1e-06 NRD=2.36667 NRS=0.75 m=1 nf=1 $X=24840 $Y=179690 $D=8
M173 VDD 4907 4906 VDD pfet_05v0 L=6e-07 W=6e-07 AD=8.52e-13 AS=2.7e-13 PD=5.32e-06 PS=2.1e-06 NRD=2.36667 NRS=0.75 m=1 nf=1 $X=24840 $Y=180970 $D=8
M174 VDD 4915 4914 VDD pfet_05v0 L=6e-07 W=6e-07 AD=8.52e-13 AS=2.7e-13 PD=5.32e-06 PS=2.1e-06 NRD=2.36667 NRS=0.75 m=1 nf=1 $X=24840 $Y=215690 $D=8
M175 VDD 4971 4970 VDD pfet_05v0 L=6e-07 W=6e-07 AD=8.52e-13 AS=2.7e-13 PD=5.32e-06 PS=2.1e-06 NRD=2.36667 NRS=0.75 m=1 nf=1 $X=24840 $Y=216970 $D=8
M176 VDD 4979 4978 VDD pfet_05v0 L=6e-07 W=6e-07 AD=8.52e-13 AS=2.7e-13 PD=5.32e-06 PS=2.1e-06 NRD=2.36667 NRS=0.75 m=1 nf=1 $X=24840 $Y=251690 $D=8
M177 VDD 4338 4340 VDD pfet_05v0 L=6e-07 W=6e-07 AD=8.52e-13 AS=2.7e-13 PD=5.32e-06 PS=2.1e-06 NRD=2.36667 NRS=0.75 m=1 nf=1 $X=24840 $Y=252970 $D=8
M178 4266 4268 VDD VDD pfet_05v0 L=6e-07 W=6e-07 AD=2.7e-13 AS=8.52e-13 PD=2.1e-06 PS=5.32e-06 NRD=0.75 NRS=2.36667 m=1 nf=1 $X=25980 $Y=179690 $D=8
M179 4907 4906 VDD VDD pfet_05v0 L=6e-07 W=6e-07 AD=2.7e-13 AS=8.52e-13 PD=2.1e-06 PS=5.32e-06 NRD=0.75 NRS=2.36667 m=1 nf=1 $X=25980 $Y=180970 $D=8
M180 4915 4914 VDD VDD pfet_05v0 L=6e-07 W=6e-07 AD=2.7e-13 AS=8.52e-13 PD=2.1e-06 PS=5.32e-06 NRD=0.75 NRS=2.36667 m=1 nf=1 $X=25980 $Y=215690 $D=8
M181 4971 4970 VDD VDD pfet_05v0 L=6e-07 W=6e-07 AD=2.7e-13 AS=8.52e-13 PD=2.1e-06 PS=5.32e-06 NRD=0.75 NRS=2.36667 m=1 nf=1 $X=25980 $Y=216970 $D=8
M182 4979 4978 VDD VDD pfet_05v0 L=6e-07 W=6e-07 AD=2.7e-13 AS=8.52e-13 PD=2.1e-06 PS=5.32e-06 NRD=0.75 NRS=2.36667 m=1 nf=1 $X=25980 $Y=251690 $D=8
M183 4338 4340 VDD VDD pfet_05v0 L=6e-07 W=6e-07 AD=2.7e-13 AS=8.52e-13 PD=2.1e-06 PS=5.32e-06 NRD=0.75 NRS=2.36667 m=1 nf=1 $X=25980 $Y=252970 $D=8
M184 4707 4218 VDD VDD pfet_05v0 L=6e-07 W=6.82e-06 AD=1.7732e-12 AS=4.68875e-12 PD=7.86e-06 PS=9.57e-06 NRD=0.152493 NRS=0.403226 m=1 nf=2 $X=26005 $Y=160970 $D=8
M185 4708 4218 VDD VDD pfet_05v0 L=6e-07 W=6.82e-06 AD=1.7732e-12 AS=4.68875e-12 PD=7.86e-06 PS=9.57e-06 NRD=0.152493 NRS=0.403226 m=1 nf=2 $X=26005 $Y=164845 $D=8
M186 4866 4660 VDD VDD pfet_05v0 L=6e-07 W=2.97e-06 AD=9.801e-13 AS=1.83397e-12 PD=4.29e-06 PS=5.44e-06 NRD=0.444444 NRS=0.83165 m=1 nf=2 $X=26220 $Y=112830 $D=8