* Subcircuit definition of cell gf180mcu_fd_ip_sram__sram512x8m8wm1
.SUBCKT gf180mcu_fd_ip_sram__sram512x8m8wm1 A[8] A[7] A[6] A[5] A[4] A[3] A[2]
+ A[1] A[0] CEN CLK D[7] D[6] D[5] D[4] D[3] D[2] D[1] D[0] GWEN Q[7] Q[6]
+ Q[5] Q[4] Q[3] Q[2] Q[1] Q[0] VDD VSS WEN[7] WEN[6] WEN[5] WEN[4] WEN[3]
+ WEN[2] WEN[1] WEN[0]
** N=24897 EP=38 IP=4916 FDC=29933
M0 23498 VSS 703 VSS nfet_05v0 L=7.7e-07 W=6e-07 AD=2.81613e-13 AS=2.82e-13 PD=1.84258e-06 PS=2.14e-06 NRD=0.782258 NRS=0.783333 m=1 nf=1 $X=120390 $Y=176390 $D=2
M1 703 VSS 23500 VSS nfet_05v0 L=7.7e-07 W=6e-07 AD=2.82e-13 AS=2.81613e-13 PD=2.14e-06 PS=1.84258e-06 NRD=0.783333 NRS=0.782258 m=1 nf=1 $X=120390 $Y=472100 $D=2
M2 VSS 23497 23498 VSS nfet_05v0 L=6e-07 W=9.5e-07 AD=1.84565e-14 AS=1.18957e-13 PD=-7.88406e-08 PS=9.41159e-07 NRD=0.0204504 NRS=0.131808 m=1 nf=1 $X=120840 $Y=177840 $D=2
M3 VSS 23499 23500 VSS nfet_05v0 L=6e-07 W=9.5e-07 AD=1.84565e-14 AS=1.18957e-13 PD=-7.88406e-08 PS=9.41159e-07 NRD=0.0204504 NRS=0.131808 m=1 nf=1 $X=120840 $Y=470470 $D=2
M4 23497 23498 VSS VSS nfet_05v0 L=6e-07 W=9.5e-07 AD=1.18957e-13 AS=1.84565e-14 PD=9.41159e-07 PS=-7.88406e-08 NRD=0.131808 NRS=0.0204504 m=1 nf=1 $X=121980 $Y=177840 $D=2
M5 23499 23500 VSS VSS nfet_05v0 L=6e-07 W=9.5e-07 AD=1.18957e-13 AS=1.84565e-14 PD=9.41159e-07 PS=-7.88406e-08 NRD=0.131808 NRS=0.0204504 m=1 nf=1 $X=121980 $Y=470470 $D=2
M6 23497 VSS 702 VSS nfet_05v0 L=7.7e-07 W=6e-07 AD=2.81613e-13 AS=2.82e-13 PD=1.84258e-06 PS=2.14e-06 NRD=0.782258 NRS=0.783333 m=1 nf=1 $X=122430 $Y=176390 $D=2
M7 702 VSS 23499 VSS nfet_05v0 L=7.7e-07 W=6e-07 AD=2.82e-13 AS=2.81613e-13 PD=2.14e-06 PS=1.84258e-06 NRD=0.783333 NRS=0.782258 m=1 nf=1 $X=122430 $Y=472100 $D=2
M8 VSS 24106 23202 VSS nfet_05v0 L=6e-07 W=1e-05 AD=3.9e-12 AS=2.6e-12 PD=1.656e-05 PS=1.104e-05 NRD=0.156 NRS=0.104 m=1 nf=2 $X=168355 $Y=180895 $D=2
M9 24106 24042 VSS VSS nfet_05v0 L=6e-07 W=5e-06 AD=3.1e-12 AS=1.7e-12 PD=1.124e-05 PS=5.68e-06 NRD=0.124 NRS=0.068 m=1 nf=1 $X=168355 $Y=183295 $D=2
M10 VSS 24044 24108 VSS nfet_05v0 L=6e-07 W=5e-06 AD=1.7e-12 AS=3.1e-12 PD=5.68e-06 PS=1.124e-05 NRD=0.068 NRS=0.124 m=1 nf=1 $X=168355 $Y=213375 $D=2
M11 VSS 24108 23209 VSS nfet_05v0 L=6e-07 W=1e-05 AD=3e-12 AS=2.6e-12 PD=1.12e-05 PS=1.104e-05 NRD=0.12 NRS=0.104 m=1 nf=2 $X=168355 $Y=214655 $D=2
M12 VSS 24110 23210 VSS nfet_05v0 L=6e-07 W=1e-05 AD=3e-12 AS=2.6e-12 PD=1.12e-05 PS=1.104e-05 NRD=0.12 NRS=0.104 m=1 nf=2 $X=168355 $Y=216895 $D=2
M13 24110 24046 VSS VSS nfet_05v0 L=6e-07 W=5e-06 AD=3.1e-12 AS=1.7e-12 PD=1.124e-05 PS=5.68e-06 NRD=0.124 NRS=0.068 m=1 nf=1 $X=168355 $Y=219295 $D=2
M14 VSS 24048 24112 VSS nfet_05v0 L=6e-07 W=5e-06 AD=1.7e-12 AS=3.1e-12 PD=5.68e-06 PS=1.124e-05 NRD=0.068 NRS=0.124 m=1 nf=1 $X=168355 $Y=249375 $D=2
M15 VSS 24112 23217 VSS nfet_05v0 L=6e-07 W=1e-05 AD=3e-12 AS=2.6e-12 PD=1.12e-05 PS=1.104e-05 NRD=0.12 NRS=0.104 m=1 nf=2 $X=168355 $Y=250655 $D=2
M16 VSS 24114 23218 VSS nfet_05v0 L=6e-07 W=1e-05 AD=3e-12 AS=2.6e-12 PD=1.12e-05 PS=1.104e-05 NRD=0.12 NRS=0.104 m=1 nf=2 $X=168355 $Y=252895 $D=2
M17 24114 24050 VSS VSS nfet_05v0 L=6e-07 W=5e-06 AD=3.1e-12 AS=1.7e-12 PD=1.124e-05 PS=5.68e-06 NRD=0.124 NRS=0.068 m=1 nf=1 $X=168355 $Y=255295 $D=2
M18 VSS 24052 24116 VSS nfet_05v0 L=6e-07 W=5e-06 AD=1.7e-12 AS=3.1e-12 PD=5.68e-06 PS=1.124e-05 NRD=0.068 NRS=0.124 m=1 nf=1 $X=168355 $Y=285375 $D=2
M19 VSS 24116 23225 VSS nfet_05v0 L=6e-07 W=1e-05 AD=3e-12 AS=2.6e-12 PD=1.12e-05 PS=1.104e-05 NRD=0.12 NRS=0.104 m=1 nf=2 $X=168355 $Y=286655 $D=2
M20 VSS 24118 23226 VSS nfet_05v0 L=6e-07 W=1e-05 AD=3e-12 AS=2.6e-12 PD=1.12e-05 PS=1.104e-05 NRD=0.12 NRS=0.104 m=1 nf=2 $X=168355 $Y=288895 $D=2
M21 24118 24054 VSS VSS nfet_05v0 L=6e-07 W=5e-06 AD=3.1e-12 AS=1.7e-12 PD=1.124e-05 PS=5.68e-06 NRD=0.124 NRS=0.068 m=1 nf=1 $X=168355 $Y=291295 $D=2
M22 VSS 24056 24120 VSS nfet_05v0 L=6e-07 W=5e-06 AD=1.7e-12 AS=3.1e-12 PD=5.68e-06 PS=1.124e-05 NRD=0.068 NRS=0.124 m=1 nf=1 $X=168355 $Y=321375 $D=2
M23 VSS 24120 23233 VSS nfet_05v0 L=6e-07 W=1e-05 AD=3e-12 AS=2.6e-12 PD=1.12e-05 PS=1.104e-05 NRD=0.12 NRS=0.104 m=1 nf=2 $X=168355 $Y=322655 $D=2
M24 VSS 24122 23234 VSS nfet_05v0 L=6e-07 W=1e-05 AD=3e-12 AS=2.6e-12 PD=1.12e-05 PS=1.104e-05 NRD=0.12 NRS=0.104 m=1 nf=2 $X=168355 $Y=324895 $D=2
M25 24122 24058 VSS VSS nfet_05v0 L=6e-07 W=5e-06 AD=3.1e-12 AS=1.7e-12 PD=1.124e-05 PS=5.68e-06 NRD=0.124 NRS=0.068 m=1 nf=1 $X=168355 $Y=327295 $D=2
M26 VSS 24060 24124 VSS nfet_05v0 L=6e-07 W=5e-06 AD=1.7e-12 AS=3.1e-12 PD=5.68e-06 PS=1.124e-05 NRD=0.068 NRS=0.124 m=1 nf=1 $X=168355 $Y=357375 $D=2
M27 VSS 24124 23241 VSS nfet_05v0 L=6e-07 W=1e-05 AD=3e-12 AS=2.6e-12 PD=1.12e-05 PS=1.104e-05 NRD=0.12 NRS=0.104 m=1 nf=2 $X=168355 $Y=358655 $D=2
M28 VSS 24126 23242 VSS nfet_05v0 L=6e-07 W=1e-05 AD=3e-12 AS=2.6e-12 PD=1.12e-05 PS=1.104e-05 NRD=0.12 NRS=0.104 m=1 nf=2 $X=168355 $Y=360895 $D=2
M29 24126 24062 VSS VSS nfet_05v0 L=6e-07 W=5e-06 AD=3.1e-12 AS=1.7e-12 PD=1.124e-05 PS=5.68e-06 NRD=0.124 NRS=0.068 m=1 nf=1 $X=168355 $Y=363295 $D=2
M30 VSS 24064 24128 VSS nfet_05v0 L=6e-07 W=5e-06 AD=1.7e-12 AS=3.1e-12 PD=5.68e-06 PS=1.124e-05 NRD=0.068 NRS=0.124 m=1 nf=1 $X=168355 $Y=393375 $D=2
M31 VSS 24128 23249 VSS nfet_05v0 L=6e-07 W=1e-05 AD=3e-12 AS=2.6e-12 PD=1.12e-05 PS=1.104e-05 NRD=0.12 NRS=0.104 m=1 nf=2 $X=168355 $Y=394655 $D=2
M32 VSS 24130 23250 VSS nfet_05v0 L=6e-07 W=1e-05 AD=3e-12 AS=2.6e-12 PD=1.12e-05 PS=1.104e-05 NRD=0.12 NRS=0.104 m=1 nf=2 $X=168355 $Y=396895 $D=2
M33 24130 24066 VSS VSS nfet_05v0 L=6e-07 W=5e-06 AD=3.1e-12 AS=1.7e-12 PD=1.124e-05 PS=5.68e-06 NRD=0.124 NRS=0.068 m=1 nf=1 $X=168355 $Y=399295 $D=2
M34 VSS 24068 24132 VSS nfet_05v0 L=6e-07 W=5e-06 AD=1.7e-12 AS=3.1e-12 PD=5.68e-06 PS=1.124e-05 NRD=0.068 NRS=0.124 m=1 nf=1 $X=168355 $Y=429375 $D=2
M35 VSS 24132 23257 VSS nfet_05v0 L=6e-07 W=1e-05 AD=3e-12 AS=2.6e-12 PD=1.12e-05 PS=1.104e-05 NRD=0.12 NRS=0.104 m=1 nf=2 $X=168355 $Y=430655 $D=2
M36 VSS 24134 23258 VSS nfet_05v0 L=6e-07 W=1e-05 AD=3e-12 AS=2.6e-12 PD=1.12e-05 PS=1.104e-05 NRD=0.12 NRS=0.104 m=1 nf=2 $X=168355 $Y=432895 $D=2
M37 24134 24070 VSS VSS nfet_05v0 L=6e-07 W=5e-06 AD=3.1e-12 AS=1.7e-12 PD=1.124e-05 PS=5.68e-06 NRD=0.124 NRS=0.068 m=1 nf=1 $X=168355 $Y=435295 $D=2
M38 VSS 24072 24136 VSS nfet_05v0 L=6e-07 W=5e-06 AD=1.7e-12 AS=3.1e-12 PD=5.68e-06 PS=1.124e-05 NRD=0.068 NRS=0.124 m=1 nf=1 $X=168355 $Y=465375 $D=2
M39 VSS 24136 23265 VSS nfet_05v0 L=6e-07 W=1e-05 AD=3.9e-12 AS=2.6e-12 PD=1.656e-05 PS=1.104e-05 NRD=0.156 NRS=0.104 m=1 nf=2 $X=168355 $Y=466655 $D=2
M40 24042 24043 VSS VSS nfet_05v0 L=6e-07 W=2.2e-06 AD=9.68e-13 AS=9.68e-13 PD=5.28e-06 PS=5.28e-06 NRD=0.2 NRS=0.2 m=1 nf=1 $X=198635 $Y=180895 $D=2
M41 VSS 24045 24044 VSS nfet_05v0 L=6e-07 W=2.2e-06 AD=5.72e-13 AS=9.68e-13 PD=2.72e-06 PS=5.28e-06 NRD=0.118182 NRS=0.2 m=1 nf=1 $X=198635 $Y=215775 $D=2
M42 24046 24047 VSS VSS nfet_05v0 L=6e-07 W=2.2e-06 AD=9.68e-13 AS=5.72e-13 PD=5.28e-06 PS=2.72e-06 NRD=0.2 NRS=0.118182 m=1 nf=1 $X=198635 $Y=216895 $D=2
M43 VSS 24049 24048 VSS nfet_05v0 L=6e-07 W=2.2e-06 AD=5.72e-13 AS=9.68e-13 PD=2.72e-06 PS=5.28e-06 NRD=0.118182 NRS=0.2 m=1 nf=1 $X=198635 $Y=251775 $D=2
M44 24050 24051 VSS VSS nfet_05v0 L=6e-07 W=2.2e-06 AD=9.68e-13 AS=5.72e-13 PD=5.28e-06 PS=2.72e-06 NRD=0.2 NRS=0.118182 m=1 nf=1 $X=198635 $Y=252895 $D=2
M45 VSS 24053 24052 VSS nfet_05v0 L=6e-07 W=2.2e-06 AD=5.72e-13 AS=9.68e-13 PD=2.72e-06 PS=5.28e-06 NRD=0.118182 NRS=0.2 m=1 nf=1 $X=198635 $Y=287775 $D=2
M46 24054 24055 VSS VSS nfet_05v0 L=6e-07 W=2.2e-06 AD=9.68e-13 AS=5.72e-13 PD=5.28e-06 PS=2.72e-06 NRD=0.2 NRS=0.118182 m=1 nf=1 $X=198635 $Y=288895 $D=2
M47 VSS 24057 24056 VSS nfet_05v0 L=6e-07 W=2.2e-06 AD=5.72e-13 AS=9.68e-13 PD=2.72e-06 PS=5.28e-06 NRD=0.118182 NRS=0.2 m=1 nf=1 $X=198635 $Y=323775 $D=2
M48 24058 24059 VSS VSS nfet_05v0 L=6e-07 W=2.2e-06 AD=9.68e-13 AS=5.72e-13 PD=5.28e-06 PS=2.72e-06 NRD=0.2 NRS=0.118182 m=1 nf=1 $X=198635 $Y=324895 $D=2
M49 VSS 24061 24060 VSS nfet_05v0 L=6e-07 W=2.2e-06 AD=5.72e-13 AS=9.68e-13 PD=2.72e-06 PS=5.28e-06 NRD=0.118182 NRS=0.2 m=1 nf=1 $X=198635 $Y=359775 $D=2
M50 24062 24063 VSS VSS nfet_05v0 L=6e-07 W=2.2e-06 AD=9.68e-13 AS=5.72e-13 PD=5.28e-06 PS=2.72e-06 NRD=0.2 NRS=0.118182 m=1 nf=1 $X=198635 $Y=360895 $D=2
M51 VSS 24065 24064 VSS nfet_05v0 L=6e-07 W=2.2e-06 AD=5.72e-13 AS=9.68e-13 PD=2.72e-06 PS=5.28e-06 NRD=0.118182 NRS=0.2 m=1 nf=1 $X=198635 $Y=395775 $D=2
M52 24066 24067 VSS VSS nfet_05v0 L=6e-07 W=2.2e-06 AD=9.68e-13 AS=5.72e-13 PD=5.28e-06 PS=2.72e-06 NRD=0.2 NRS=0.118182 m=1 nf=1 $X=198635 $Y=396895 $D=2
M53 VSS 24069 24068 VSS nfet_05v0 L=6e-07 W=2.2e-06 AD=5.72e-13 AS=9.68e-13 PD=2.72e-06 PS=5.28e-06 NRD=0.118182 NRS=0.2 m=1 nf=1 $X=198635 $Y=431775 $D=2
M54 24070 24071 VSS VSS nfet_05v0 L=6e-07 W=2.2e-06 AD=9.68e-13 AS=5.72e-13 PD=5.28e-06 PS=2.72e-06 NRD=0.2 NRS=0.118182 m=1 nf=1 $X=198635 $Y=432895 $D=2
M55 VSS 24073 24072 VSS nfet_05v0 L=6e-07 W=2.2e-06 AD=9.68e-13 AS=9.68e-13 PD=5.28e-06 PS=5.28e-06 NRD=0.2 NRS=0.2 m=1 nf=1 $X=198635 $Y=467775 $D=2
M56 2 VDD 1 VSS nfet_05v0 L=6e-07 W=6.59e-06 AD=2.8996e-12 AS=2.8996e-12 PD=1.406e-05 PS=1.406e-05 NRD=0.0667678 NRS=0.0667678 m=1 nf=1 $X=204815 $Y=471000 $D=2
M57 24707 1040 VSS VSS nfet_05v0 L=6e-07 W=3.15e-06 AD=7.32375e-13 AS=2.079e-12 PD=3.615e-06 PS=7.62e-06 NRD=0.0738095 NRS=0.209524 m=1 nf=1 $X=218475 $Y=180950 $D=2
M58 24706 1044 24707 VSS nfet_05v0 L=6e-07 W=3.15e-06 AD=8.6625e-14 AS=-8.6625e-14 PD=5.5e-08 PS=-5.5e-08 NRD=0.00873016 NRS=-0.00873016 m=1 nf=1 $X=218475 $Y=182015 $D=2
M59 24043 1052 24706 VSS nfet_05v0 L=6e-07 W=3.15e-06 AD=2.25225e-12 AS=8.19e-13 PD=7.73e-06 PS=3.67e-06 NRD=0.226984 NRS=0.0825397 m=1 nf=1 $X=218475 $Y=183135 $D=2
M60 24708 1045 24045 VSS nfet_05v0 L=6e-07 W=3.15e-06 AD=8.19e-13 AS=2.25225e-12 PD=3.67e-06 PS=7.73e-06 NRD=0.0825397 NRS=0.226984 m=1 nf=1 $X=218475 $Y=213535 $D=2
M61 24709 1044 24708 VSS nfet_05v0 L=6e-07 W=3.15e-06 AD=-8.6625e-14 AS=8.6625e-14 PD=-5.5e-08 PS=5.5e-08 NRD=-0.00873016 NRS=0.00873016 m=1 nf=1 $X=218475 $Y=214655 $D=2
M62 VSS 1040 24709 VSS nfet_05v0 L=6e-07 W=3.15e-06 AD=2.59875e-13 AS=-2.59875e-13 PD=1.65e-07 PS=-1.65e-07 NRD=0.0261905 NRS=-0.0261905 m=1 nf=1 $X=218475 $Y=215720 $D=2
M63 24711 1040 VSS VSS nfet_05v0 L=6e-07 W=3.15e-06 AD=-2.59875e-13 AS=2.59875e-13 PD=-1.65e-07 PS=1.65e-07 NRD=-0.0261905 NRS=0.0261905 m=1 nf=1 $X=218475 $Y=216950 $D=2
M64 24710 1043 24711 VSS nfet_05v0 L=6e-07 W=3.15e-06 AD=8.6625e-14 AS=-8.6625e-14 PD=5.5e-08 PS=-5.5e-08 NRD=0.00873016 NRS=-0.00873016 m=1 nf=1 $X=218475 $Y=218015 $D=2
M65 24047 1052 24710 VSS nfet_05v0 L=6e-07 W=3.15e-06 AD=2.25225e-12 AS=8.19e-13 PD=7.73e-06 PS=3.67e-06 NRD=0.226984 NRS=0.0825397 m=1 nf=1 $X=218475 $Y=219135 $D=2
M66 24712 1045 24049 VSS nfet_05v0 L=6e-07 W=3.15e-06 AD=8.19e-13 AS=2.25225e-12 PD=3.67e-06 PS=7.73e-06 NRD=0.0825397 NRS=0.226984 m=1 nf=1 $X=218475 $Y=249535 $D=2
M67 24713 1043 24712 VSS nfet_05v0 L=6e-07 W=3.15e-06 AD=-8.6625e-14 AS=8.6625e-14 PD=-5.5e-08 PS=5.5e-08 NRD=-0.00873016 NRS=0.00873016 m=1 nf=1 $X=218475 $Y=250655 $D=2
M68 VSS 1040 24713 VSS nfet_05v0 L=6e-07 W=3.15e-06 AD=2.59875e-13 AS=-2.59875e-13 PD=1.65e-07 PS=-1.65e-07 NRD=0.0261905 NRS=-0.0261905 m=1 nf=1 $X=218475 $Y=251720 $D=2
M69 24715 1040 VSS VSS nfet_05v0 L=6e-07 W=3.15e-06 AD=-2.59875e-13 AS=2.59875e-13 PD=-1.65e-07 PS=1.65e-07 NRD=-0.0261905 NRS=0.0261905 m=1 nf=1 $X=218475 $Y=252950 $D=2
M70 24714 1042 24715 VSS nfet_05v0 L=6e-07 W=3.15e-06 AD=8.6625e-14 AS=-8.6625e-14 PD=5.5e-08 PS=-5.5e-08 NRD=0.00873016 NRS=-0.00873016 m=1 nf=1 $X=218475 $Y=254015 $D=2
M71 24051 1052 24714 VSS nfet_05v0 L=6e-07 W=3.15e-06 AD=2.25225e-12 AS=8.19e-13 PD=7.73e-06 PS=3.67e-06 NRD=0.226984 NRS=0.0825397 m=1 nf=1 $X=218475 $Y=255135 $D=2
M72 24716 1045 24053 VSS nfet_05v0 L=6e-07 W=3.15e-06 AD=8.19e-13 AS=2.25225e-12 PD=3.67e-06 PS=7.73e-06 NRD=0.0825397 NRS=0.226984 m=1 nf=1 $X=218475 $Y=285535 $D=2
M73 24717 1042 24716 VSS nfet_05v0 L=6e-07 W=3.15e-06 AD=-8.6625e-14 AS=8.6625e-14 PD=-5.5e-08 PS=5.5e-08 NRD=-0.00873016 NRS=0.00873016 m=1 nf=1 $X=218475 $Y=286655 $D=2
M74 VSS 1040 24717 VSS nfet_05v0 L=6e-07 W=3.15e-06 AD=2.59875e-13 AS=-2.59875e-13 PD=1.65e-07 PS=-1.65e-07 NRD=0.0261905 NRS=-0.0261905 m=1 nf=1 $X=218475 $Y=287720 $D=2
M75 24719 1040 VSS VSS nfet_05v0 L=6e-07 W=3.15e-06 AD=-2.59875e-13 AS=2.59875e-13 PD=-1.65e-07 PS=1.65e-07 NRD=-0.0261905 NRS=0.0261905 m=1 nf=1 $X=218475 $Y=288950 $D=2
M76 24718 1041 24719 VSS nfet_05v0 L=6e-07 W=3.15e-06 AD=8.6625e-14 AS=-8.6625e-14 PD=5.5e-08 PS=-5.5e-08 NRD=0.00873016 NRS=-0.00873016 m=1 nf=1 $X=218475 $Y=290015 $D=2
M77 24055 1052 24718 VSS nfet_05v0 L=6e-07 W=3.15e-06 AD=2.25225e-12 AS=8.19e-13 PD=7.73e-06 PS=3.67e-06 NRD=0.226984 NRS=0.0825397 m=1 nf=1 $X=218475 $Y=291135 $D=2
M78 24720 1045 24057 VSS nfet_05v0 L=6e-07 W=3.15e-06 AD=8.19e-13 AS=2.25225e-12 PD=3.67e-06 PS=7.73e-06 NRD=0.0825397 NRS=0.226984 m=1 nf=1 $X=218475 $Y=321535 $D=2
M79 24721 1041 24720 VSS nfet_05v0 L=6e-07 W=3.15e-06 AD=-8.6625e-14 AS=8.6625e-14 PD=-5.5e-08 PS=5.5e-08 NRD=-0.00873016 NRS=0.00873016 m=1 nf=1 $X=218475 $Y=322655 $D=2
M80 VSS 1040 24721 VSS nfet_05v0 L=6e-07 W=3.15e-06 AD=2.59875e-13 AS=-2.59875e-13 PD=1.65e-07 PS=-1.65e-07 NRD=0.0261905 NRS=-0.0261905 m=1 nf=1 $X=218475 $Y=323720 $D=2
M81 24723 1038 VSS VSS nfet_05v0 L=6e-07 W=3.15e-06 AD=-2.59875e-13 AS=2.59875e-13 PD=-1.65e-07 PS=1.65e-07 NRD=-0.0261905 NRS=0.0261905 m=1 nf=1 $X=218475 $Y=324950 $D=2
M82 24722 1044 24723 VSS nfet_05v0 L=6e-07 W=3.15e-06 AD=8.6625e-14 AS=-8.6625e-14 PD=5.5e-08 PS=-5.5e-08 NRD=0.00873016 NRS=-0.00873016 m=1 nf=1 $X=218475 $Y=326015 $D=2
M83 24059 1052 24722 VSS nfet_05v0 L=6e-07 W=3.15e-06 AD=2.25225e-12 AS=8.19e-13 PD=7.73e-06 PS=3.67e-06 NRD=0.226984 NRS=0.0825397 m=1 nf=1 $X=218475 $Y=327135 $D=2
M84 24724 1045 24061 VSS nfet_05v0 L=6e-07 W=3.15e-06 AD=8.19e-13 AS=2.25225e-12 PD=3.67e-06 PS=7.73e-06 NRD=0.0825397 NRS=0.226984 m=1 nf=1 $X=218475 $Y=357535 $D=2
M85 24725 1044 24724 VSS nfet_05v0 L=6e-07 W=3.15e-06 AD=-8.6625e-14 AS=8.6625e-14 PD=-5.5e-08 PS=5.5e-08 NRD=-0.00873016 NRS=0.00873016 m=1 nf=1 $X=218475 $Y=358655 $D=2
M86 VSS 1038 24725 VSS nfet_05v0 L=6e-07 W=3.15e-06 AD=2.59875e-13 AS=-2.59875e-13 PD=1.65e-07 PS=-1.65e-07 NRD=0.0261905 NRS=-0.0261905 m=1 nf=1 $X=218475 $Y=359720 $D=2
M87 24727 1038 VSS VSS nfet_05v0 L=6e-07 W=3.15e-06 AD=-2.59875e-13 AS=2.59875e-13 PD=-1.65e-07 PS=1.65e-07 NRD=-0.0261905 NRS=0.0261905 m=1 nf=1 $X=218475 $Y=360950 $D=2
M88 24726 1043 24727 VSS nfet_05v0 L=6e-07 W=3.15e-06 AD=8.6625e-14 AS=-8.6625e-14 PD=5.5e-08 PS=-5.5e-08 NRD=0.00873016 NRS=-0.00873016 m=1 nf=1 $X=218475 $Y=362015 $D=2
M89 24063 1052 24726 VSS nfet_05v0 L=6e-07 W=3.15e-06 AD=2.25225e-12 AS=8.19e-13 PD=7.73e-06 PS=3.67e-06 NRD=0.226984 NRS=0.0825397 m=1 nf=1 $X=218475 $Y=363135 $D=2
M90 24728 1045 24065 VSS nfet_05v0 L=6e-07 W=3.15e-06 AD=8.19e-13 AS=2.25225e-12 PD=3.67e-06 PS=7.73e-06 NRD=0.0825397 NRS=0.226984 m=1 nf=1 $X=218475 $Y=393535 $D=2
M91 24729 1043 24728 VSS nfet_05v0 L=6e-07 W=3.15e-06 AD=-8.6625e-14 AS=8.6625e-14 PD=-5.5e-08 PS=5.5e-08 NRD=-0.00873016 NRS=0.00873016 m=1 nf=1 $X=218475 $Y=394655 $D=2
M92 VSS 1038 24729 VSS nfet_05v0 L=6e-07 W=3.15e-06 AD=2.59875e-13 AS=-2.59875e-13 PD=1.65e-07 PS=-1.65e-07 NRD=0.0261905 NRS=-0.0261905 m=1 nf=1 $X=218475 $Y=395720 $D=2
M93 24731 1038 VSS VSS nfet_05v0 L=6e-07 W=3.15e-06 AD=-2.59875e-13 AS=2.59875e-13 PD=-1.65e-07 PS=1.65e-07 NRD=-0.0261905 NRS=0.0261905 m=1 nf=1 $X=218475 $Y=396950 $D=2
M94 24730 1042 24731 VSS nfet_05v0 L=6e-07 W=3.15e-06 AD=8.6625e-14 AS=-8.6625e-14 PD=5.5e-08 PS=-5.5e-08 NRD=0.00873016 NRS=-0.00873016 m=1 nf=1 $X=218475 $Y=398015 $D=2
M95 24067 1052 24730 VSS nfet_05v0 L=6e-07 W=3.15e-06 AD=2.25225e-12 AS=8.19e-13 PD=7.73e-06 PS=3.67e-06 NRD=0.226984 NRS=0.0825397 m=1 nf=1 $X=218475 $Y=399135 $D=2
M96 24732 1045 24069 VSS nfet_05v0 L=6e-07 W=3.15e-06 AD=8.19e-13 AS=2.25225e-12 PD=3.67e-06 PS=7.73e-06 NRD=0.0825397 NRS=0.226984 m=1 nf=1 $X=218475 $Y=429535 $D=2
M97 24733 1042 24732 VSS nfet_05v0 L=6e-07 W=3.15e-06 AD=-8.6625e-14 AS=8.6625e-14 PD=-5.5e-08 PS=5.5e-08 NRD=-0.00873016 NRS=0.00873016 m=1 nf=1 $X=218475 $Y=430655 $D=2
M98 VSS 1038 24733 VSS nfet_05v0 L=6e-07 W=3.15e-06 AD=2.59875e-13 AS=-2.59875e-13 PD=1.65e-07 PS=-1.65e-07 NRD=0.0261905 NRS=-0.0261905 m=1 nf=1 $X=218475 $Y=431720 $D=2
M99 24735 1038 VSS VSS nfet_05v0 L=6e-07 W=3.15e-06 AD=-2.59875e-13 AS=2.59875e-13 PD=-1.65e-07 PS=1.65e-07 NRD=-0.0261905 NRS=0.0261905 m=1 nf=1 $X=218475 $Y=432950 $D=2
M100 24734 1041 24735 VSS nfet_05v0 L=6e-07 W=3.15e-06 AD=8.6625e-14 AS=-8.6625e-14 PD=5.5e-08 PS=-5.5e-08 NRD=0.00873016 NRS=-0.00873016 m=1 nf=1 $X=218475 $Y=434015 $D=2
M101 24071 1052 24734 VSS nfet_05v0 L=6e-07 W=3.15e-06 AD=2.25225e-12 AS=8.19e-13 PD=7.73e-06 PS=3.67e-06 NRD=0.226984 NRS=0.0825397 m=1 nf=1 $X=218475 $Y=435135 $D=2
M102 24736 1045 24073 VSS nfet_05v0 L=6e-07 W=3.15e-06 AD=8.19e-13 AS=2.25225e-12 PD=3.67e-06 PS=7.73e-06 NRD=0.0825397 NRS=0.226984 m=1 nf=1 $X=218475 $Y=465535 $D=2
M103 24737 1041 24736 VSS nfet_05v0 L=6e-07 W=3.15e-06 AD=-8.6625e-14 AS=8.6625e-14 PD=-5.5e-08 PS=5.5e-08 NRD=-0.00873016 NRS=0.00873016 m=1 nf=1 $X=218475 $Y=466655 $D=2
M104 VSS 1038 24737 VSS nfet_05v0 L=6e-07 W=3.15e-06 AD=2.079e-12 AS=7.32375e-13 PD=7.62e-06 PS=3.615e-06 NRD=0.209524 NRS=0.0738095 m=1 nf=1 $X=218475 $Y=467720 $D=2
M105 VSS 1 1000 VSS nfet_05v0 L=6e-07 W=1.36e-06 AD=3.536e-13 AS=5.984e-13 PD=1.88e-06 PS=3.6e-06 NRD=0.191176 NRS=0.323529 m=1 nf=1 $X=233770 $Y=54135 $D=2
M106 1000 CLK VSS VSS nfet_05v0 L=6e-07 W=1.36e-06 AD=5.984e-13 AS=3.536e-13 PD=3.6e-06 PS=1.88e-06 NRD=0.323529 NRS=0.191176 m=1 nf=1 $X=234890 $Y=54135 $D=2
M107 616 619 VSS VSS nfet_05v0 L=6e-07 W=4.54e-06 AD=1.1804e-12 AS=1.9976e-12 PD=5.58e-06 PS=1.084e-05 NRD=0.229075 NRS=0.387665 m=1 nf=2 $X=242235 $Y=54135 $D=2
M108 281 1006 VSS VSS nfet_05v0 L=1e-06 W=6e-07 AD=2.64e-13 AS=2.64e-13 PD=2.08e-06 PS=2.08e-06 NRD=0.733333 NRS=0.733333 m=1 nf=1 $X=243265 $Y=46010 $D=2
M109 CEN 1000 619 VSS nfet_05v0 L=6e-07 W=2.27e-06 AD=9.988e-13 AS=9.988e-13 PD=5.42e-06 PS=5.42e-06 NRD=0.193833 NRS=0.193833 m=1 nf=1 $X=245925 $Y=54135 $D=2
M110 250 468 VSS VSS nfet_05v0 L=6e-07 W=4.99e-05 AD=1.47704e-11 AS=1.47704e-11 PD=6.284e-05 PS=6.284e-05 NRD=0.148297 NRS=0.148297 m=1 nf=5 $X=241995 $Y=72320 $D=2
M111 317 281 VSS VSS nfet_05v0 L=6e-07 W=7.5e-07 AD=3.3e-13 AS=3.3e-13 PD=2.38e-06 PS=2.38e-06 NRD=0.586667 NRS=0.586667 m=1 nf=1 $X=246495 $Y=46075 $D=2
M112 354 317 VSS VSS nfet_05v0 L=6e-07 W=3.02e-06 AD=1.3288e-12 AS=1.3288e-12 PD=6.92e-06 PS=6.92e-06 NRD=0.145695 NRS=0.145695 m=1 nf=1 $X=249065 $Y=46070 $D=2
M113 24027 354 VSS VSS nfet_05v0 L=6e-07 W=2.268e-05 AD=5.8968e-12 AS=1.34946e-11 PD=2.32e-05 PS=4.655e-05 NRD=0.0114638 NRS=0.0262346 m=1 nf=1 $X=256125 $Y=28435 $D=2
M114 VSS 24107 23266 VSS nfet_05v0 L=6e-07 W=1e-05 AD=3.9e-12 AS=2.6e-12 PD=1.656e-05 PS=1.104e-05 NRD=0.156 NRS=0.104 m=1 nf=2 $X=252270 $Y=180895 $D=2
M115 24107 24042 VSS VSS nfet_05v0 L=6e-07 W=5e-06 AD=3.1e-12 AS=1.7e-12 PD=1.124e-05 PS=5.68e-06 NRD=0.124 NRS=0.068 m=1 nf=1 $X=252270 $Y=183295 $D=2
M116 VSS 24044 24109 VSS nfet_05v0 L=6e-07 W=5e-06 AD=1.7e-12 AS=3.1e-12 PD=5.68e-06 PS=1.124e-05 NRD=0.068 NRS=0.124 m=1 nf=1 $X=252270 $Y=213375 $D=2
M117 VSS 24109 23273 VSS nfet_05v0 L=6e-07 W=1e-05 AD=3e-12 AS=2.6e-12 PD=1.12e-05 PS=1.104e-05 NRD=0.12 NRS=0.104 m=1 nf=2 $X=252270 $Y=214655 $D=2
M118 VSS 24111 23274 VSS nfet_05v0 L=6e-07 W=1e-05 AD=3e-12 AS=2.6e-12 PD=1.12e-05 PS=1.104e-05 NRD=0.12 NRS=0.104 m=1 nf=2 $X=252270 $Y=216895 $D=2
M119 24111 24046 VSS VSS nfet_05v0 L=6e-07 W=5e-06 AD=3.1e-12 AS=1.7e-12 PD=1.124e-05 PS=5.68e-06 NRD=0.124 NRS=0.068 m=1 nf=1 $X=252270 $Y=219295 $D=2
M120 VSS 24048 24113 VSS nfet_05v0 L=6e-07 W=5e-06 AD=1.7e-12 AS=3.1e-12 PD=5.68e-06 PS=1.124e-05 NRD=0.068 NRS=0.124 m=1 nf=1 $X=252270 $Y=249375 $D=2
M121 VSS 24113 23281 VSS nfet_05v0 L=6e-07 W=1e-05 AD=3e-12 AS=2.6e-12 PD=1.12e-05 PS=1.104e-05 NRD=0.12 NRS=0.104 m=1 nf=2 $X=252270 $Y=250655 $D=2
M122 VSS 24115 23282 VSS nfet_05v0 L=6e-07 W=1e-05 AD=3e-12 AS=2.6e-12 PD=1.12e-05 PS=1.104e-05 NRD=0.12 NRS=0.104 m=1 nf=2 $X=252270 $Y=252895 $D=2
M123 24115 24050 VSS VSS nfet_05v0 L=6e-07 W=5e-06 AD=3.1e-12 AS=1.7e-12 PD=1.124e-05 PS=5.68e-06 NRD=0.124 NRS=0.068 m=1 nf=1 $X=252270 $Y=255295 $D=2
M124 VSS 24052 24117 VSS nfet_05v0 L=6e-07 W=5e-06 AD=1.7e-12 AS=3.1e-12 PD=5.68e-06 PS=1.124e-05 NRD=0.068 NRS=0.124 m=1 nf=1 $X=252270 $Y=285375 $D=2
M125 VSS 24117 23289 VSS nfet_05v0 L=6e-07 W=1e-05 AD=3e-12 AS=2.6e-12 PD=1.12e-05 PS=1.104e-05 NRD=0.12 NRS=0.104 m=1 nf=2 $X=252270 $Y=286655 $D=2
M126 VSS 24119 23290 VSS nfet_05v0 L=6e-07 W=1e-05 AD=3e-12 AS=2.6e-12 PD=1.12e-05 PS=1.104e-05 NRD=0.12 NRS=0.104 m=1 nf=2 $X=252270 $Y=288895 $D=2
M127 24119 24054 VSS VSS nfet_05v0 L=6e-07 W=5e-06 AD=3.1e-12 AS=1.7e-12 PD=1.124e-05 PS=5.68e-06 NRD=0.124 NRS=0.068 m=1 nf=1 $X=252270 $Y=291295 $D=2
M128 VSS 24056 24121 VSS nfet_05v0 L=6e-07 W=5e-06 AD=1.7e-12 AS=3.1e-12 PD=5.68e-06 PS=1.124e-05 NRD=0.068 NRS=0.124 m=1 nf=1 $X=252270 $Y=321375 $D=2
M129 VSS 24121 23297 VSS nfet_05v0 L=6e-07 W=1e-05 AD=3e-12 AS=2.6e-12 PD=1.12e-05 PS=1.104e-05 NRD=0.12 NRS=0.104 m=1 nf=2 $X=252270 $Y=322655 $D=2
M130 VSS 24123 23298 VSS nfet_05v0 L=6e-07 W=1e-05 AD=3e-12 AS=2.6e-12 PD=1.12e-05 PS=1.104e-05 NRD=0.12 NRS=0.104 m=1 nf=2 $X=252270 $Y=324895 $D=2
M131 24123 24058 VSS VSS nfet_05v0 L=6e-07 W=5e-06 AD=3.1e-12 AS=1.7e-12 PD=1.124e-05 PS=5.68e-06 NRD=0.124 NRS=0.068 m=1 nf=1 $X=252270 $Y=327295 $D=2
M132 VSS 24060 24125 VSS nfet_05v0 L=6e-07 W=5e-06 AD=1.7e-12 AS=3.1e-12 PD=5.68e-06 PS=1.124e-05 NRD=0.068 NRS=0.124 m=1 nf=1 $X=252270 $Y=357375 $D=2
M133 VSS 24125 23305 VSS nfet_05v0 L=6e-07 W=1e-05 AD=3e-12 AS=2.6e-12 PD=1.12e-05 PS=1.104e-05 NRD=0.12 NRS=0.104 m=1 nf=2 $X=252270 $Y=358655 $D=2
M134 VSS 24127 23306 VSS nfet_05v0 L=6e-07 W=1e-05 AD=3e-12 AS=2.6e-12 PD=1.12e-05 PS=1.104e-05 NRD=0.12 NRS=0.104 m=1 nf=2 $X=252270 $Y=360895 $D=2
M135 24127 24062 VSS VSS nfet_05v0 L=6e-07 W=5e-06 AD=3.1e-12 AS=1.7e-12 PD=1.124e-05 PS=5.68e-06 NRD=0.124 NRS=0.068 m=1 nf=1 $X=252270 $Y=363295 $D=2
M136 VSS 24064 24129 VSS nfet_05v0 L=6e-07 W=5e-06 AD=1.7e-12 AS=3.1e-12 PD=5.68e-06 PS=1.124e-05 NRD=0.068 NRS=0.124 m=1 nf=1 $X=252270 $Y=393375 $D=2
M137 VSS 24129 23313 VSS nfet_05v0 L=6e-07 W=1e-05 AD=3e-12 AS=2.6e-12 PD=1.12e-05 PS=1.104e-05 NRD=0.12 NRS=0.104 m=1 nf=2 $X=252270 $Y=394655 $D=2
M138 VSS 24131 23314 VSS nfet_05v0 L=6e-07 W=1e-05 AD=3e-12 AS=2.6e-12 PD=1.12e-05 PS=1.104e-05 NRD=0.12 NRS=0.104 m=1 nf=2 $X=252270 $Y=396895 $D=2
M139 24131 24066 VSS VSS nfet_05v0 L=6e-07 W=5e-06 AD=3.1e-12 AS=1.7e-12 PD=1.124e-05 PS=5.68e-06 NRD=0.124 NRS=0.068 m=1 nf=1 $X=252270 $Y=399295 $D=2
M140 VSS 24068 24133 VSS nfet_05v0 L=6e-07 W=5e-06 AD=1.7e-12 AS=3.1e-12 PD=5.68e-06 PS=1.124e-05 NRD=0.068 NRS=0.124 m=1 nf=1 $X=252270 $Y=429375 $D=2
M141 VSS 24133 23321 VSS nfet_05v0 L=6e-07 W=1e-05 AD=3e-12 AS=2.6e-12 PD=1.12e-05 PS=1.104e-05 NRD=0.12 NRS=0.104 m=1 nf=2 $X=252270 $Y=430655 $D=2
M142 VSS 24135 23322 VSS nfet_05v0 L=6e-07 W=1e-05 AD=3e-12 AS=2.6e-12 PD=1.12e-05 PS=1.104e-05 NRD=0.12 NRS=0.104 m=1 nf=2 $X=252270 $Y=432895 $D=2
M143 24135 24070 VSS VSS nfet_05v0 L=6e-07 W=5e-06 AD=3.1e-12 AS=1.7e-12 PD=1.124e-05 PS=5.68e-06 NRD=0.124 NRS=0.068 m=1 nf=1 $X=252270 $Y=435295 $D=2
M144 VSS 24072 24137 VSS nfet_05v0 L=6e-07 W=5e-06 AD=1.7e-12 AS=3.1e-12 PD=5.68e-06 PS=1.124e-05 NRD=0.068 NRS=0.124 m=1 nf=1 $X=252270 $Y=465375 $D=2
M145 VSS 24137 23329 VSS nfet_05v0 L=6e-07 W=1e-05 AD=3.9e-12 AS=2.6e-12 PD=1.656e-05 PS=1.104e-05 NRD=0.156 NRS=0.104 m=1 nf=2 $X=252270 $Y=466655 $D=2
M146 24028 CLK 24027 VSS nfet_05v0 L=6e-07 W=2.268e-05 AD=0 AS=0 PD=0 PS=0 NRD=0 NRS=0 m=1 nf=1 $X=257245 $Y=28435 $D=2
M147 445 616 24028 VSS nfet_05v0 L=6e-07 W=2.268e-05 AD=1.33812e-11 AS=5.8968e-12 PD=4.654e-05 PS=2.32e-05 NRD=0.0260141 NRS=0.0114638 m=1 nf=1 $X=258365 $Y=28435 $D=2
M148 24029 495 VSS VSS nfet_05v0 L=6e-07 W=1.8145e-05 AD=4.7177e-12 AS=1.07963e-11 PD=1.8665e-05 PS=3.748e-05 NRD=0.014329 NRS=0.0327914 m=1 nf=1 $X=262120 $Y=29545 $D=2
M149 468 445 24029 VSS nfet_05v0 L=6e-07 W=1.8145e-05 AD=0 AS=0 PD=0 PS=0 NRD=0 NRS=0 m=1 nf=1 $X=263240 $Y=29545 $D=2
M150 24030 445 468 VSS nfet_05v0 L=6e-07 W=1.8145e-05 AD=0 AS=0 PD=0 PS=0 NRD=0 NRS=0 m=1 nf=1 $X=264360 $Y=29545 $D=2
M151 VSS 495 24030 VSS nfet_05v0 L=6e-07 W=1.8145e-05 AD=1.07055e-11 AS=4.7177e-12 PD=3.747e-05 PS=1.8665e-05 NRD=0.0325158 NRS=0.014329 m=1 nf=1 $X=265480 $Y=29545 $D=2
M152 24031 468 VSS VSS nfet_05v0 L=6e-07 W=4.54e-06 AD=1.16905e-12 AS=2.7013e-12 PD=5.055e-06 PS=1.027e-05 NRD=0.0567181 NRS=0.131057 m=1 nf=1 $X=268545 $Y=43150 $D=2
M153 495 607 24031 VSS nfet_05v0 L=6e-07 W=4.54e-06 AD=2.27e-14 AS=-2.27e-14 PD=1e-08 PS=-1e-08 NRD=0.00110132 NRS=-0.00110132 m=1 nf=1 $X=269660 $Y=43150 $D=2
M154 24032 607 495 VSS nfet_05v0 L=6e-07 W=4.54e-06 AD=-2.27e-14 AS=2.27e-14 PD=-1e-08 PS=1e-08 NRD=-0.00110132 NRS=0.00110132 m=1 nf=1 $X=270785 $Y=43150 $D=2
M155 VSS 468 24032 VSS nfet_05v0 L=6e-07 W=4.54e-06 AD=2.7013e-12 AS=1.16905e-12 PD=1.027e-05 PS=5.055e-06 NRD=0.131057 NRS=0.0567181 m=1 nf=1 $X=271900 $Y=43150 $D=2
M156 1 250 VSS VSS nfet_05v0 L=6e-07 W=0.0001474 AD=3.8324e-11 AS=4.09772e-11 PD=0.0001578 PS=0.00017326 NRD=0.705563 NRS=0.75441 m=1 nf=20 $X=253180 $Y=76320 $D=2
M157 23502 VSS 705 VSS nfet_05v0 L=7.7e-07 W=6e-07 AD=2.81613e-13 AS=2.82e-13 PD=1.84258e-06 PS=2.14e-06 NRD=0.782258 NRS=0.783333 m=1 nf=1 $X=304270 $Y=176390 $D=2
M158 705 VSS 23504 VSS nfet_05v0 L=7.7e-07 W=6e-07 AD=2.82e-13 AS=2.81613e-13 PD=2.14e-06 PS=1.84258e-06 NRD=0.783333 NRS=0.782258 m=1 nf=1 $X=304270 $Y=472100 $D=2
M159 VSS 23501 23502 VSS nfet_05v0 L=6e-07 W=9.5e-07 AD=1.84565e-14 AS=1.18957e-13 PD=-7.88406e-08 PS=9.41159e-07 NRD=0.0204504 NRS=0.131808 m=1 nf=1 $X=304720 $Y=177840 $D=2
M160 VSS 23503 23504 VSS nfet_05v0 L=6e-07 W=9.5e-07 AD=1.84565e-14 AS=1.18957e-13 PD=-7.88406e-08 PS=9.41159e-07 NRD=0.0204504 NRS=0.131808 m=1 nf=1 $X=304720 $Y=470470 $D=2
M161 23501 23502 VSS VSS nfet_05v0 L=6e-07 W=9.5e-07 AD=1.18957e-13 AS=1.84565e-14 PD=9.41159e-07 PS=-7.88406e-08 NRD=0.131808 NRS=0.0204504 m=1 nf=1 $X=305860 $Y=177840 $D=2
M162 23503 23504 VSS VSS nfet_05v0 L=6e-07 W=9.5e-07 AD=1.18957e-13 AS=1.84565e-14 PD=9.41159e-07 PS=-7.88406e-08 NRD=0.131808 NRS=0.0204504 m=1 nf=1 $X=305860 $Y=470470 $D=2
M163 23501 VSS 704 VSS nfet_05v0 L=7.7e-07 W=6e-07 AD=2.81613e-13 AS=2.82e-13 PD=1.84258e-06 PS=2.14e-06 NRD=0.782258 NRS=0.783333 m=1 nf=1 $X=306310 $Y=176390 $D=2
M164 704 VSS 23503 VSS nfet_05v0 L=7.7e-07 W=6e-07 AD=2.82e-13 AS=2.81613e-13 PD=2.14e-06 PS=1.84258e-06 NRD=0.783333 NRS=0.782258 m=1 nf=1 $X=306310 $Y=472100 $D=2
M165 24074 VSS 614 VSS nfet_05v0 L=7.7e-07 W=6e-07 AD=2.81613e-13 AS=2.82e-13 PD=1.84258e-06 PS=2.14e-06 NRD=0.782258 NRS=0.783333 m=1 nf=1 $X=418270 $Y=176390 $D=2
M166 614 VSS 24076 VSS nfet_05v0 L=7.7e-07 W=6e-07 AD=-2.739e-13 AS=1.416e-13 PD=-1.70545e-06 PS=8.14545e-07 NRD=-0.760833 NRS=0.393333 m=1 nf=1 $X=418270 $Y=211100 $D=2
M167 24078 VSS 614 VSS nfet_05v0 L=7.7e-07 W=6e-07 AD=1.416e-13 AS=-2.739e-13 PD=8.14545e-07 PS=-1.70545e-06 NRD=0.393333 NRS=-0.760833 m=1 nf=1 $X=418270 $Y=212390 $D=2
M168 614 VSS 24080 VSS nfet_05v0 L=7.7e-07 W=6e-07 AD=-2.739e-13 AS=1.416e-13 PD=-1.70545e-06 PS=8.14545e-07 NRD=-0.760833 NRS=0.393333 m=1 nf=1 $X=418270 $Y=247100 $D=2
M169 24082 VSS 614 VSS nfet_05v0 L=7.7e-07 W=6e-07 AD=1.416e-13 AS=-2.739e-13 PD=8.14545e-07 PS=-1.70545e-06 NRD=0.393333 NRS=-0.760833 m=1 nf=1 $X=418270 $Y=248390 $D=2
M170 614 VSS 24084 VSS nfet_05v0 L=7.7e-07 W=6e-07 AD=-2.739e-13 AS=1.416e-13 PD=-1.70545e-06 PS=8.14545e-07 NRD=-0.760833 NRS=0.393333 m=1 nf=1 $X=418270 $Y=283100 $D=2
M171 24086 VSS 614 VSS nfet_05v0 L=7.7e-07 W=6e-07 AD=1.416e-13 AS=-2.739e-13 PD=8.14545e-07 PS=-1.70545e-06 NRD=0.393333 NRS=-0.760833 m=1 nf=1 $X=418270 $Y=284390 $D=2
M172 614 VSS 24088 VSS nfet_05v0 L=7.7e-07 W=6e-07 AD=-2.739e-13 AS=1.416e-13 PD=-1.70545e-06 PS=8.14545e-07 NRD=-0.760833 NRS=0.393333 m=1 nf=1 $X=418270 $Y=319100 $D=2
M173 24090 VSS 614 VSS nfet_05v0 L=7.7e-07 W=6e-07 AD=1.416e-13 AS=-2.739e-13 PD=8.14545e-07 PS=-1.70545e-06 NRD=0.393333 NRS=-0.760833 m=1 nf=1 $X=418270 $Y=320390 $D=2
M174 614 VSS 24092 VSS nfet_05v0 L=7.7e-07 W=6e-07 AD=-2.739e-13 AS=1.416e-13 PD=-1.70545e-06 PS=8.14545e-07 NRD=-0.760833 NRS=0.393333 m=1 nf=1 $X=418270 $Y=355100 $D=2
M175 24094 VSS 614 VSS nfet_05v0 L=7.7e-07 W=6e-07 AD=1.416e-13 AS=-2.739e-13 PD=8.14545e-07 PS=-1.70545e-06 NRD=0.393333 NRS=-0.760833 m=1 nf=1 $X=418270 $Y=356390 $D=2
M176 614 VSS 24096 VSS nfet_05v0 L=7.7e-07 W=6e-07 AD=-2.739e-13 AS=1.416e-13 PD=-1.70545e-06 PS=8.14545e-07 NRD=-0.760833 NRS=0.393333 m=1 nf=1 $X=418270 $Y=391100 $D=2
M177 24098 VSS 614 VSS nfet_05v0 L=7.7e-07 W=6e-07 AD=1.416e-13 AS=-2.739e-13 PD=8.14545e-07 PS=-1.70545e-06 NRD=0.393333 NRS=-0.760833 m=1 nf=1 $X=418270 $Y=392390 $D=2
M178 614 VSS 24100 VSS nfet_05v0 L=7.7e-07 W=6e-07 AD=-2.739e-13 AS=1.416e-13 PD=-1.70545e-06 PS=8.14545e-07 NRD=-0.760833 NRS=0.393333 m=1 nf=1 $X=418270 $Y=427100 $D=2
M179 24102 VSS 614 VSS nfet_05v0 L=7.7e-07 W=6e-07 AD=1.416e-13 AS=-2.739e-13 PD=8.14545e-07 PS=-1.70545e-06 NRD=0.393333 NRS=-0.760833 m=1 nf=1 $X=418270 $Y=428390 $D=2
M180 614 1002 24104 VSS nfet_05v0 L=7.7e-07 W=6e-07 AD=-2.739e-13 AS=1.416e-13 PD=-1.70545e-06 PS=8.14545e-07 NRD=-0.760833 NRS=0.393333 m=1 nf=1 $X=418270 $Y=463100 $D=2
M181 23859 1002 614 VSS nfet_05v0 L=7.7e-07 W=6e-07 AD=1.416e-13 AS=-2.739e-13 PD=8.14545e-07 PS=-1.70545e-06 NRD=0.393333 NRS=-0.760833 m=1 nf=1 $X=418270 $Y=464390 $D=2
M182 614 1002 23857 VSS nfet_05v0 L=7.7e-07 W=6e-07 AD=2.82e-13 AS=2.81613e-13 PD=2.14e-06 PS=1.84258e-06 NRD=0.783333 NRS=0.782258 m=1 nf=1 $X=418270 $Y=472100 $D=2
M183 VSS VDD 24074 VSS nfet_05v0 L=6e-07 W=9.5e-07 AD=1.84565e-14 AS=1.18957e-13 PD=-7.88406e-08 PS=9.41159e-07 NRD=0.0204504 NRS=0.131808 m=1 nf=1 $X=418720 $Y=177840 $D=2
M184 VSS VDD 24076 VSS nfet_05v0 L=6e-07 W=9.5e-07 AD=1.84565e-14 AS=1.18957e-13 PD=-7.88406e-08 PS=9.41159e-07 NRD=0.0204504 NRS=0.131808 m=1 nf=1 $X=418720 $Y=209470 $D=2