* Subcircuit definition of cell lcol4_64
.SUBCKT lcol4_64 VSS VDD WEN[2] pcb[2] b[23] bb[23] men WEN[0] pcb[0] b[7] bb[7] WEN[3] pcb[3] b[24] bb[24] WEN[1] pcb[1] b[8] bb[8] WL[0]
+ WL[1] WL[2] WL[3] WL[4] WL[5] WL[6] WL[7] GWEN GWE ypass[0] ypass[1] ypass[2] ypass[3] ypass[4] ypass[5] ypass[6] ypass[7] din[1] q[1] din[3]
+ q[3] din[0] q[0] din[2] q[2] b[26] bb[26] bb[27] b[27] bb[25] b[25] b[10] bb[10] bb[11] b[11] bb[9] b[9] b[28] bb[28] bb[29]
+ b[29] b[30] bb[30] bb[31] b[31] b[20] bb[20] bb[21] b[21] b[22] bb[22] b[16] bb[16] bb[17] b[17] b[18] bb[18] bb[19] b[19] b[12]
+ bb[12] bb[13] b[13] b[14] bb[14] bb[15] b[15] b[0] bb[0] bb[1] b[1] b[2] bb[2] bb[3] b[3] b[4] bb[4] bb[5] b[5] b[6]
+ bb[6]
** N=500 EP=101 IP=1003 FDC=2761
*.SEEDPROM
M0 138 VSS 47 VSS nfet_05v0 L=7.7e-07 W=6e-07 AD=2.81613e-13 AS=2.82e-13 PD=1.84258e-06 PS=2.14e-06 NRD=0.782258 NRS=0.783333 m=1 nf=1 $X=105785 $Y=151295 $D=2
M1 47 VSS 140 VSS nfet_05v0 L=7.7e-07 W=6e-07 AD=2.82e-13 AS=2.81613e-13 PD=2.14e-06 PS=1.84258e-06 NRD=0.783333 NRS=0.782258 m=1 nf=1 $X=105785 $Y=195005 $D=2
M2 VSS 137 138 VSS nfet_05v0 L=6e-07 W=9.5e-07 AD=1.84565e-14 AS=1.18957e-13 PD=-7.88406e-08 PS=9.41159e-07 NRD=0.0204504 NRS=0.131808 m=1 nf=1 $X=106235 $Y=152745 $D=2
M3 VSS 139 140 VSS nfet_05v0 L=6e-07 W=9.5e-07 AD=1.84565e-14 AS=1.18957e-13 PD=-7.88406e-08 PS=9.41159e-07 NRD=0.0204504 NRS=0.131808 m=1 nf=1 $X=106235 $Y=193375 $D=2
M4 137 138 VSS VSS nfet_05v0 L=6e-07 W=9.5e-07 AD=1.18957e-13 AS=1.84565e-14 PD=9.41159e-07 PS=-7.88406e-08 NRD=0.131808 NRS=0.0204504 m=1 nf=1 $X=107375 $Y=152745 $D=2
M5 139 140 VSS VSS nfet_05v0 L=6e-07 W=9.5e-07 AD=1.18957e-13 AS=1.84565e-14 PD=9.41159e-07 PS=-7.88406e-08 NRD=0.131808 NRS=0.0204504 m=1 nf=1 $X=107375 $Y=193375 $D=2
M6 137 VSS 46 VSS nfet_05v0 L=7.7e-07 W=6e-07 AD=2.81613e-13 AS=2.82e-13 PD=1.84258e-06 PS=2.14e-06 NRD=0.782258 NRS=0.783333 m=1 nf=1 $X=107825 $Y=151295 $D=2
M7 46 VSS 139 VSS nfet_05v0 L=7.7e-07 W=6e-07 AD=2.82e-13 AS=2.81613e-13 PD=2.14e-06 PS=1.84258e-06 NRD=0.783333 NRS=0.782258 m=1 nf=1 $X=107825 $Y=195005 $D=2
M8 VDD 186 188 VDD pfet_05v0 L=6e-07 W=6e-07 AD=8.52e-13 AS=2.7e-13 PD=5.32e-06 PS=2.1e-06 NRD=2.36667 NRS=0.75 m=1 nf=1 $X=-1765 $Y=154595 $D=8
M9 VDD 344 343 VDD pfet_05v0 L=6e-07 W=6e-07 AD=8.52e-13 AS=2.7e-13 PD=5.32e-06 PS=2.1e-06 NRD=2.36667 NRS=0.75 m=1 nf=1 $X=-1765 $Y=155875 $D=8
M10 VDD 352 351 VDD pfet_05v0 L=6e-07 W=6e-07 AD=8.52e-13 AS=2.7e-13 PD=5.32e-06 PS=2.1e-06 NRD=2.36667 NRS=0.75 m=1 nf=1 $X=-1765 $Y=190595 $D=8
M11 VDD 202 204 VDD pfet_05v0 L=6e-07 W=6e-07 AD=8.52e-13 AS=2.7e-13 PD=5.32e-06 PS=2.1e-06 NRD=2.36667 NRS=0.75 m=1 nf=1 $X=-1765 $Y=191875 $D=8
M12 186 188 VDD VDD pfet_05v0 L=6e-07 W=6e-07 AD=2.7e-13 AS=8.52e-13 PD=2.1e-06 PS=5.32e-06 NRD=0.75 NRS=2.36667 m=1 nf=1 $X=-625 $Y=154595 $D=8
M13 344 343 VDD VDD pfet_05v0 L=6e-07 W=6e-07 AD=2.7e-13 AS=8.52e-13 PD=2.1e-06 PS=5.32e-06 NRD=0.75 NRS=2.36667 m=1 nf=1 $X=-625 $Y=155875 $D=8
M14 352 351 VDD VDD pfet_05v0 L=6e-07 W=6e-07 AD=2.7e-13 AS=8.52e-13 PD=2.1e-06 PS=5.32e-06 NRD=0.75 NRS=2.36667 m=1 nf=1 $X=-625 $Y=190595 $D=8
M15 202 204 VDD VDD pfet_05v0 L=6e-07 W=6e-07 AD=2.7e-13 AS=8.52e-13 PD=2.1e-06 PS=5.32e-06 NRD=0.75 NRS=2.36667 m=1 nf=1 $X=-625 $Y=191875 $D=8
M16 439 ypass[7] VDD VDD pfet_05v0 L=6e-07 W=2.97e-06 AD=9.801e-13 AS=1.8414e-12 PD=4.29e-06 PS=6.935e-06 NRD=0.444444 NRS=0.835017 m=1 nf=2 $X=-770 $Y=87735 $D=8
M17 VDD 182 184 VDD pfet_05v0 L=6e-07 W=6e-07 AD=8.52e-13 AS=2.7e-13 PD=5.32e-06 PS=2.1e-06 NRD=2.36667 NRS=0.75 m=1 nf=1 $X=1235 $Y=154595 $D=8
M18 VDD 346 345 VDD pfet_05v0 L=6e-07 W=6e-07 AD=8.52e-13 AS=2.7e-13 PD=5.32e-06 PS=2.1e-06 NRD=2.36667 NRS=0.75 m=1 nf=1 $X=1235 $Y=155875 $D=8
M19 VDD 354 353 VDD pfet_05v0 L=6e-07 W=6e-07 AD=8.52e-13 AS=2.7e-13 PD=5.32e-06 PS=2.1e-06 NRD=2.36667 NRS=0.75 m=1 nf=1 $X=1235 $Y=190595 $D=8
M20 VDD 198 200 VDD pfet_05v0 L=6e-07 W=6e-07 AD=8.52e-13 AS=2.7e-13 PD=5.32e-06 PS=2.1e-06 NRD=2.36667 NRS=0.75 m=1 nf=1 $X=1235 $Y=191875 $D=8
M21 182 184 VDD VDD pfet_05v0 L=6e-07 W=6e-07 AD=2.7e-13 AS=8.52e-13 PD=2.1e-06 PS=5.32e-06 NRD=0.75 NRS=2.36667 m=1 nf=1 $X=2375 $Y=154595 $D=8
M22 346 345 VDD VDD pfet_05v0 L=6e-07 W=6e-07 AD=2.7e-13 AS=8.52e-13 PD=2.1e-06 PS=5.32e-06 NRD=0.75 NRS=2.36667 m=1 nf=1 $X=2375 $Y=155875 $D=8
M23 354 353 VDD VDD pfet_05v0 L=6e-07 W=6e-07 AD=2.7e-13 AS=8.52e-13 PD=2.1e-06 PS=5.32e-06 NRD=0.75 NRS=2.36667 m=1 nf=1 $X=2375 $Y=190595 $D=8
M24 198 200 VDD VDD pfet_05v0 L=6e-07 W=6e-07 AD=2.7e-13 AS=8.52e-13 PD=2.1e-06 PS=5.32e-06 NRD=0.75 NRS=2.36667 m=1 nf=1 $X=2375 $Y=191875 $D=8
M25 440 ypass[6] VDD VDD pfet_05v0 L=6e-07 W=2.97e-06 AD=9.801e-13 AS=1.83769e-12 PD=4.29e-06 PS=5.445e-06 NRD=0.444444 NRS=0.833333 m=1 nf=2 $X=1760 $Y=87735 $D=8
M26 VDD 178 180 VDD pfet_05v0 L=6e-07 W=6e-07 AD=8.52e-13 AS=2.7e-13 PD=5.32e-06 PS=2.1e-06 NRD=2.36667 NRS=0.75 m=1 nf=1 $X=4235 $Y=154595 $D=8
M27 VDD 348 347 VDD pfet_05v0 L=6e-07 W=6e-07 AD=8.52e-13 AS=2.7e-13 PD=5.32e-06 PS=2.1e-06 NRD=2.36667 NRS=0.75 m=1 nf=1 $X=4235 $Y=155875 $D=8
M28 VDD 356 355 VDD pfet_05v0 L=6e-07 W=6e-07 AD=8.52e-13 AS=2.7e-13 PD=5.32e-06 PS=2.1e-06 NRD=2.36667 NRS=0.75 m=1 nf=1 $X=4235 $Y=190595 $D=8
M29 VDD 194 196 VDD pfet_05v0 L=6e-07 W=6e-07 AD=8.52e-13 AS=2.7e-13 PD=5.32e-06 PS=2.1e-06 NRD=2.36667 NRS=0.75 m=1 nf=1 $X=4235 $Y=191875 $D=8
M30 178 180 VDD VDD pfet_05v0 L=6e-07 W=6e-07 AD=2.7e-13 AS=8.52e-13 PD=2.1e-06 PS=5.32e-06 NRD=0.75 NRS=2.36667 m=1 nf=1 $X=5375 $Y=154595 $D=8
M31 348 347 VDD VDD pfet_05v0 L=6e-07 W=6e-07 AD=2.7e-13 AS=8.52e-13 PD=2.1e-06 PS=5.32e-06 NRD=0.75 NRS=2.36667 m=1 nf=1 $X=5375 $Y=155875 $D=8
M32 356 355 VDD VDD pfet_05v0 L=6e-07 W=6e-07 AD=2.7e-13 AS=8.52e-13 PD=2.1e-06 PS=5.32e-06 NRD=0.75 NRS=2.36667 m=1 nf=1 $X=5375 $Y=190595 $D=8
M33 194 196 VDD VDD pfet_05v0 L=6e-07 W=6e-07 AD=2.7e-13 AS=8.52e-13 PD=2.1e-06 PS=5.32e-06 NRD=0.75 NRS=2.36667 m=1 nf=1 $X=5375 $Y=191875 $D=8
M34 441 ypass[5] VDD VDD pfet_05v0 L=6e-07 W=2.97e-06 AD=9.801e-13 AS=1.83769e-12 PD=4.29e-06 PS=5.445e-06 NRD=0.444444 NRS=0.833333 m=1 nf=2 $X=5425 $Y=87735 $D=8
M35 VDD 174 176 VDD pfet_05v0 L=6e-07 W=6e-07 AD=8.52e-13 AS=2.7e-13 PD=5.32e-06 PS=2.1e-06 NRD=2.36667 NRS=0.75 m=1 nf=1 $X=7235 $Y=154595 $D=8
M36 VDD 350 349 VDD pfet_05v0 L=6e-07 W=6e-07 AD=8.52e-13 AS=2.7e-13 PD=5.32e-06 PS=2.1e-06 NRD=2.36667 NRS=0.75 m=1 nf=1 $X=7235 $Y=155875 $D=8
M37 VDD 358 357 VDD pfet_05v0 L=6e-07 W=6e-07 AD=8.52e-13 AS=2.7e-13 PD=5.32e-06 PS=2.1e-06 NRD=2.36667 NRS=0.75 m=1 nf=1 $X=7235 $Y=190595 $D=8
M38 VDD 190 192 VDD pfet_05v0 L=6e-07 W=6e-07 AD=8.52e-13 AS=2.7e-13 PD=5.32e-06 PS=2.1e-06 NRD=2.36667 NRS=0.75 m=1 nf=1 $X=7235 $Y=191875 $D=8
M39 174 176 VDD VDD pfet_05v0 L=6e-07 W=6e-07 AD=2.7e-13 AS=8.52e-13 PD=2.1e-06 PS=5.32e-06 NRD=0.75 NRS=2.36667 m=1 nf=1 $X=8375 $Y=154595 $D=8
M40 350 349 VDD VDD pfet_05v0 L=6e-07 W=6e-07 AD=2.7e-13 AS=8.52e-13 PD=2.1e-06 PS=5.32e-06 NRD=0.75 NRS=2.36667 m=1 nf=1 $X=8375 $Y=155875 $D=8
M41 358 357 VDD VDD pfet_05v0 L=6e-07 W=6e-07 AD=2.7e-13 AS=8.52e-13 PD=2.1e-06 PS=5.32e-06 NRD=0.75 NRS=2.36667 m=1 nf=1 $X=8375 $Y=190595 $D=8
M42 190 192 VDD VDD pfet_05v0 L=6e-07 W=6e-07 AD=2.7e-13 AS=8.52e-13 PD=2.1e-06 PS=5.32e-06 NRD=0.75 NRS=2.36667 m=1 nf=1 $X=8375 $Y=191875 $D=8
M43 442 ypass[4] VDD VDD pfet_05v0 L=6e-07 W=2.97e-06 AD=9.801e-13 AS=1.83397e-12 PD=4.29e-06 PS=5.44e-06 NRD=0.444444 NRS=0.83165 m=1 nf=2 $X=7955 $Y=87735 $D=8
M44 VDD 146 148 VDD pfet_05v0 L=6e-07 W=6e-07 AD=8.52e-13 AS=2.7e-13 PD=5.32e-06 PS=2.1e-06 NRD=2.36667 NRS=0.75 m=1 nf=1 $X=10235 $Y=154595 $D=8
M45 VDD 360 359 VDD pfet_05v0 L=6e-07 W=6e-07 AD=8.52e-13 AS=2.7e-13 PD=5.32e-06 PS=2.1e-06 NRD=2.36667 NRS=0.75 m=1 nf=1 $X=10235 $Y=155875 $D=8
M46 VDD 368 367 VDD pfet_05v0 L=6e-07 W=6e-07 AD=8.52e-13 AS=2.7e-13 PD=5.32e-06 PS=2.1e-06 NRD=2.36667 NRS=0.75 m=1 nf=1 $X=10235 $Y=190595 $D=8
M47 VDD 218 220 VDD pfet_05v0 L=6e-07 W=6e-07 AD=8.52e-13 AS=2.7e-13 PD=5.32e-06 PS=2.1e-06 NRD=2.36667 NRS=0.75 m=1 nf=1 $X=10235 $Y=191875 $D=8
M48 146 148 VDD VDD pfet_05v0 L=6e-07 W=6e-07 AD=2.7e-13 AS=8.52e-13 PD=2.1e-06 PS=5.32e-06 NRD=0.75 NRS=2.36667 m=1 nf=1 $X=11375 $Y=154595 $D=8
M49 360 359 VDD VDD pfet_05v0 L=6e-07 W=6e-07 AD=2.7e-13 AS=8.52e-13 PD=2.1e-06 PS=5.32e-06 NRD=0.75 NRS=2.36667 m=1 nf=1 $X=11375 $Y=155875 $D=8
M50 368 367 VDD VDD pfet_05v0 L=6e-07 W=6e-07 AD=2.7e-13 AS=8.52e-13 PD=2.1e-06 PS=5.32e-06 NRD=0.75 NRS=2.36667 m=1 nf=1 $X=11375 $Y=190595 $D=8
M51 218 220 VDD VDD pfet_05v0 L=6e-07 W=6e-07 AD=2.7e-13 AS=8.52e-13 PD=2.1e-06 PS=5.32e-06 NRD=0.75 NRS=2.36667 m=1 nf=1 $X=11375 $Y=191875 $D=8
M52 443 ypass[3] VDD VDD pfet_05v0 L=6e-07 W=2.97e-06 AD=9.801e-13 AS=1.83397e-12 PD=4.29e-06 PS=5.44e-06 NRD=0.444444 NRS=0.83165 m=1 nf=2 $X=11615 $Y=87735 $D=8
M53 VDD 142 144 VDD pfet_05v0 L=6e-07 W=6e-07 AD=8.52e-13 AS=2.7e-13 PD=5.32e-06 PS=2.1e-06 NRD=2.36667 NRS=0.75 m=1 nf=1 $X=13235 $Y=154595 $D=8
M54 VDD 362 361 VDD pfet_05v0 L=6e-07 W=6e-07 AD=8.52e-13 AS=2.7e-13 PD=5.32e-06 PS=2.1e-06 NRD=2.36667 NRS=0.75 m=1 nf=1 $X=13235 $Y=155875 $D=8
M55 VDD 370 369 VDD pfet_05v0 L=6e-07 W=6e-07 AD=8.52e-13 AS=2.7e-13 PD=5.32e-06 PS=2.1e-06 NRD=2.36667 NRS=0.75 m=1 nf=1 $X=13235 $Y=190595 $D=8
M56 VDD 214 216 VDD pfet_05v0 L=6e-07 W=6e-07 AD=8.52e-13 AS=2.7e-13 PD=5.32e-06 PS=2.1e-06 NRD=2.36667 NRS=0.75 m=1 nf=1 $X=13235 $Y=191875 $D=8
M57 142 144 VDD VDD pfet_05v0 L=6e-07 W=6e-07 AD=2.7e-13 AS=8.52e-13 PD=2.1e-06 PS=5.32e-06 NRD=0.75 NRS=2.36667 m=1 nf=1 $X=14375 $Y=154595 $D=8
M58 362 361 VDD VDD pfet_05v0 L=6e-07 W=6e-07 AD=2.7e-13 AS=8.52e-13 PD=2.1e-06 PS=5.32e-06 NRD=0.75 NRS=2.36667 m=1 nf=1 $X=14375 $Y=155875 $D=8
M59 370 369 VDD VDD pfet_05v0 L=6e-07 W=6e-07 AD=2.7e-13 AS=8.52e-13 PD=2.1e-06 PS=5.32e-06 NRD=0.75 NRS=2.36667 m=1 nf=1 $X=14375 $Y=190595 $D=8
M60 214 216 VDD VDD pfet_05v0 L=6e-07 W=6e-07 AD=2.7e-13 AS=8.52e-13 PD=2.1e-06 PS=5.32e-06 NRD=0.75 NRS=2.36667 m=1 nf=1 $X=14375 $Y=191875 $D=8
M61 444 ypass[2] VDD VDD pfet_05v0 L=6e-07 W=2.97e-06 AD=9.801e-13 AS=1.83769e-12 PD=4.29e-06 PS=5.445e-06 NRD=0.444444 NRS=0.833333 m=1 nf=2 $X=14145 $Y=87735 $D=8
M62 VDD 154 156 VDD pfet_05v0 L=6e-07 W=6e-07 AD=8.52e-13 AS=2.7e-13 PD=5.32e-06 PS=2.1e-06 NRD=2.36667 NRS=0.75 m=1 nf=1 $X=16235 $Y=154595 $D=8
M63 VDD 364 363 VDD pfet_05v0 L=6e-07 W=6e-07 AD=8.52e-13 AS=2.7e-13 PD=5.32e-06 PS=2.1e-06 NRD=2.36667 NRS=0.75 m=1 nf=1 $X=16235 $Y=155875 $D=8
M64 VDD 372 371 VDD pfet_05v0 L=6e-07 W=6e-07 AD=8.52e-13 AS=2.7e-13 PD=5.32e-06 PS=2.1e-06 NRD=2.36667 NRS=0.75 m=1 nf=1 $X=16235 $Y=190595 $D=8
M65 VDD 210 212 VDD pfet_05v0 L=6e-07 W=6e-07 AD=8.52e-13 AS=2.7e-13 PD=5.32e-06 PS=2.1e-06 NRD=2.36667 NRS=0.75 m=1 nf=1 $X=16235 $Y=191875 $D=8
M66 154 156 VDD VDD pfet_05v0 L=6e-07 W=6e-07 AD=2.7e-13 AS=8.52e-13 PD=2.1e-06 PS=5.32e-06 NRD=0.75 NRS=2.36667 m=1 nf=1 $X=17375 $Y=154595 $D=8
M67 364 363 VDD VDD pfet_05v0 L=6e-07 W=6e-07 AD=2.7e-13 AS=8.52e-13 PD=2.1e-06 PS=5.32e-06 NRD=0.75 NRS=2.36667 m=1 nf=1 $X=17375 $Y=155875 $D=8
M68 372 371 VDD VDD pfet_05v0 L=6e-07 W=6e-07 AD=2.7e-13 AS=8.52e-13 PD=2.1e-06 PS=5.32e-06 NRD=0.75 NRS=2.36667 m=1 nf=1 $X=17375 $Y=190595 $D=8
M69 210 212 VDD VDD pfet_05v0 L=6e-07 W=6e-07 AD=2.7e-13 AS=8.52e-13 PD=2.1e-06 PS=5.32e-06 NRD=0.75 NRS=2.36667 m=1 nf=1 $X=17375 $Y=191875 $D=8
M70 445 ypass[1] VDD VDD pfet_05v0 L=6e-07 W=2.97e-06 AD=9.801e-13 AS=1.83769e-12 PD=4.29e-06 PS=5.445e-06 NRD=0.444444 NRS=0.833333 m=1 nf=2 $X=17810 $Y=87735 $D=8
M71 VDD 150 152 VDD pfet_05v0 L=6e-07 W=6e-07 AD=8.52e-13 AS=2.7e-13 PD=5.32e-06 PS=2.1e-06 NRD=2.36667 NRS=0.75 m=1 nf=1 $X=19235 $Y=154595 $D=8
M72 VDD 366 365 VDD pfet_05v0 L=6e-07 W=6e-07 AD=8.52e-13 AS=2.7e-13 PD=5.32e-06 PS=2.1e-06 NRD=2.36667 NRS=0.75 m=1 nf=1 $X=19235 $Y=155875 $D=8
M73 VDD 374 373 VDD pfet_05v0 L=6e-07 W=6e-07 AD=8.52e-13 AS=2.7e-13 PD=5.32e-06 PS=2.1e-06 NRD=2.36667 NRS=0.75 m=1 nf=1 $X=19235 $Y=190595 $D=8
M74 VDD 206 208 VDD pfet_05v0 L=6e-07 W=6e-07 AD=8.52e-13 AS=2.7e-13 PD=5.32e-06 PS=2.1e-06 NRD=2.36667 NRS=0.75 m=1 nf=1 $X=19235 $Y=191875 $D=8
M75 150 152 VDD VDD pfet_05v0 L=6e-07 W=6e-07 AD=2.7e-13 AS=8.52e-13 PD=2.1e-06 PS=5.32e-06 NRD=0.75 NRS=2.36667 m=1 nf=1 $X=20375 $Y=154595 $D=8
M76 366 365 VDD VDD pfet_05v0 L=6e-07 W=6e-07 AD=2.7e-13 AS=8.52e-13 PD=2.1e-06 PS=5.32e-06 NRD=0.75 NRS=2.36667 m=1 nf=1 $X=20375 $Y=155875 $D=8
M77 374 373 VDD VDD pfet_05v0 L=6e-07 W=6e-07 AD=2.7e-13 AS=8.52e-13 PD=2.1e-06 PS=5.32e-06 NRD=0.75 NRS=2.36667 m=1 nf=1 $X=20375 $Y=190595 $D=8
M78 206 208 VDD VDD pfet_05v0 L=6e-07 W=6e-07 AD=2.7e-13 AS=8.52e-13 PD=2.1e-06 PS=5.32e-06 NRD=0.75 NRS=2.36667 m=1 nf=1 $X=20375 $Y=191875 $D=8
M79 327 ypass[0] VDD VDD pfet_05v0 L=6e-07 W=2.97e-06 AD=9.72675e-13 AS=1.84882e-12 PD=4.28e-06 PS=5.46e-06 NRD=0.441077 NRS=0.838384 m=1 nf=2 $X=20340 $Y=87735 $D=8
M80 VDD 475 476 VDD pfet_05v0 L=6e-07 W=6e-07 AD=8.52e-13 AS=2.7e-13 PD=5.32e-06 PS=2.1e-06 NRD=2.36667 NRS=0.75 m=1 nf=1 $X=25235 $Y=190595 $D=8
M81 VDD 234 236 VDD pfet_05v0 L=6e-07 W=6e-07 AD=8.52e-13 AS=2.7e-13 PD=5.32e-06 PS=2.1e-06 NRD=2.36667 NRS=0.75 m=1 nf=1 $X=25235 $Y=191875 $D=8
M82 325 ypass[7] VDD VDD pfet_05v0 L=6e-07 W=2.97e-06 AD=9.72675e-13 AS=1.84882e-12 PD=4.28e-06 PS=5.46e-06 NRD=0.441077 NRS=0.838384 m=1 nf=2 $X=24015 $Y=87735 $D=8
M83 475 476 VDD VDD pfet_05v0 L=6e-07 W=6e-07 AD=2.7e-13 AS=8.52e-13 PD=2.1e-06 PS=5.32e-06 NRD=0.75 NRS=2.36667 m=1 nf=1 $X=26375 $Y=190595 $D=8
M84 234 236 VDD VDD pfet_05v0 L=6e-07 W=6e-07 AD=2.7e-13 AS=8.52e-13 PD=2.1e-06 PS=5.32e-06 NRD=0.75 NRS=2.36667 m=1 nf=1 $X=26375 $Y=191875 $D=8
M85 335 ypass[6] VDD VDD pfet_05v0 L=6e-07 W=2.97e-06 AD=9.801e-13 AS=1.83769e-12 PD=4.29e-06 PS=5.445e-06 NRD=0.444444 NRS=0.833333 m=1 nf=2 $X=26540 $Y=87735 $D=8
M86 VDD 473 474 VDD pfet_05v0 L=6e-07 W=6e-07 AD=8.52e-13 AS=2.7e-13 PD=5.32e-06 PS=2.1e-06 NRD=2.36667 NRS=0.75 m=1 nf=1 $X=28235 $Y=190595 $D=8
M87 VDD 230 232 VDD pfet_05v0 L=6e-07 W=6e-07 AD=8.52e-13 AS=2.7e-13 PD=5.32e-06 PS=2.1e-06 NRD=2.36667 NRS=0.75 m=1 nf=1 $X=28235 $Y=191875 $D=8
M88 473 474 VDD VDD pfet_05v0 L=6e-07 W=6e-07 AD=2.7e-13 AS=8.52e-13 PD=2.1e-06 PS=5.32e-06 NRD=0.75 NRS=2.36667 m=1 nf=1 $X=29375 $Y=190595 $D=8
M89 230 232 VDD VDD pfet_05v0 L=6e-07 W=6e-07 AD=2.7e-13 AS=8.52e-13 PD=2.1e-06 PS=5.32e-06 NRD=0.75 NRS=2.36667 m=1 nf=1 $X=29375 $Y=191875 $D=8
M90 VDD 471 472 VDD pfet_05v0 L=6e-07 W=6e-07 AD=8.52e-13 AS=2.7e-13 PD=5.32e-06 PS=2.1e-06 NRD=2.36667 NRS=0.75 m=1 nf=1 $X=31235 $Y=190595 $D=8
M91 VDD 226 228 VDD pfet_05v0 L=6e-07 W=6e-07 AD=8.52e-13 AS=2.7e-13 PD=5.32e-06 PS=2.1e-06 NRD=2.36667 NRS=0.75 m=1 nf=1 $X=31235 $Y=191875 $D=8
M92 334 ypass[5] VDD VDD pfet_05v0 L=6e-07 W=2.97e-06 AD=9.801e-13 AS=1.83769e-12 PD=4.29e-06 PS=5.445e-06 NRD=0.444444 NRS=0.833333 m=1 nf=2 $X=30205 $Y=87735 $D=8
M93 471 472 VDD VDD pfet_05v0 L=6e-07 W=6e-07 AD=2.7e-13 AS=8.52e-13 PD=2.1e-06 PS=5.32e-06 NRD=0.75 NRS=2.36667 m=1 nf=1 $X=32375 $Y=190595 $D=8
M94 226 228 VDD VDD pfet_05v0 L=6e-07 W=6e-07 AD=2.7e-13 AS=8.52e-13 PD=2.1e-06 PS=5.32e-06 NRD=0.75 NRS=2.36667 m=1 nf=1 $X=32375 $Y=191875 $D=8
M95 333 ypass[4] VDD VDD pfet_05v0 L=6e-07 W=2.97e-06 AD=9.801e-13 AS=1.83397e-12 PD=4.29e-06 PS=5.44e-06 NRD=0.444444 NRS=0.83165 m=1 nf=2 $X=32735 $Y=87735 $D=8
M96 VDD 469 470 VDD pfet_05v0 L=6e-07 W=6e-07 AD=8.52e-13 AS=2.7e-13 PD=5.32e-06 PS=2.1e-06 NRD=2.36667 NRS=0.75 m=1 nf=1 $X=34235 $Y=190595 $D=8
M97 VDD 222 224 VDD pfet_05v0 L=6e-07 W=6e-07 AD=8.52e-13 AS=2.7e-13 PD=5.32e-06 PS=2.1e-06 NRD=2.36667 NRS=0.75 m=1 nf=1 $X=34235 $Y=191875 $D=8
M98 469 470 VDD VDD pfet_05v0 L=6e-07 W=6e-07 AD=2.7e-13 AS=8.52e-13 PD=2.1e-06 PS=5.32e-06 NRD=0.75 NRS=2.36667 m=1 nf=1 $X=35375 $Y=190595 $D=8
M99 222 224 VDD VDD pfet_05v0 L=6e-07 W=6e-07 AD=2.7e-13 AS=8.52e-13 PD=2.1e-06 PS=5.32e-06 NRD=0.75 NRS=2.36667 m=1 nf=1 $X=35375 $Y=191875 $D=8
M100 VDD 483 484 VDD pfet_05v0 L=6e-07 W=6e-07 AD=8.52e-13 AS=2.7e-13 PD=5.32e-06 PS=2.1e-06 NRD=2.36667 NRS=0.75 m=1 nf=1 $X=37235 $Y=190595 $D=8
M101 VDD 250 252 VDD pfet_05v0 L=6e-07 W=6e-07 AD=8.52e-13 AS=2.7e-13 PD=5.32e-06 PS=2.1e-06 NRD=2.36667 NRS=0.75 m=1 nf=1 $X=37235 $Y=191875 $D=8
M102 332 ypass[3] VDD VDD pfet_05v0 L=6e-07 W=2.97e-06 AD=9.801e-13 AS=1.83397e-12 PD=4.29e-06 PS=5.44e-06 NRD=0.444444 NRS=0.83165 m=1 nf=2 $X=36395 $Y=87735 $D=8
M103 483 484 VDD VDD pfet_05v0 L=6e-07 W=6e-07 AD=2.7e-13 AS=8.52e-13 PD=2.1e-06 PS=5.32e-06 NRD=0.75 NRS=2.36667 m=1 nf=1 $X=38375 $Y=190595 $D=8
M104 250 252 VDD VDD pfet_05v0 L=6e-07 W=6e-07 AD=2.7e-13 AS=8.52e-13 PD=2.1e-06 PS=5.32e-06 NRD=0.75 NRS=2.36667 m=1 nf=1 $X=38375 $Y=191875 $D=8
M105 331 ypass[2] VDD VDD pfet_05v0 L=6e-07 W=2.97e-06 AD=9.801e-13 AS=1.83769e-12 PD=4.29e-06 PS=5.445e-06 NRD=0.444444 NRS=0.833333 m=1 nf=2 $X=38925 $Y=87735 $D=8
M106 VDD 481 482 VDD pfet_05v0 L=6e-07 W=6e-07 AD=8.52e-13 AS=2.7e-13 PD=5.32e-06 PS=2.1e-06 NRD=2.36667 NRS=0.75 m=1 nf=1 $X=40235 $Y=190595 $D=8
M107 VDD 246 248 VDD pfet_05v0 L=6e-07 W=6e-07 AD=8.52e-13 AS=2.7e-13 PD=5.32e-06 PS=2.1e-06 NRD=2.36667 NRS=0.75 m=1 nf=1 $X=40235 $Y=191875 $D=8
M108 481 482 VDD VDD pfet_05v0 L=6e-07 W=6e-07 AD=2.7e-13 AS=8.52e-13 PD=2.1e-06 PS=5.32e-06 NRD=0.75 NRS=2.36667 m=1 nf=1 $X=41375 $Y=190595 $D=8
M109 246 248 VDD VDD pfet_05v0 L=6e-07 W=6e-07 AD=2.7e-13 AS=8.52e-13 PD=2.1e-06 PS=5.32e-06 NRD=0.75 NRS=2.36667 m=1 nf=1 $X=41375 $Y=191875 $D=8
M110 VDD 479 480 VDD pfet_05v0 L=6e-07 W=6e-07 AD=8.52e-13 AS=2.7e-13 PD=5.32e-06 PS=2.1e-06 NRD=2.36667 NRS=0.75 m=1 nf=1 $X=43235 $Y=190595 $D=8
M111 VDD 242 244 VDD pfet_05v0 L=6e-07 W=6e-07 AD=8.52e-13 AS=2.7e-13 PD=5.32e-06 PS=2.1e-06 NRD=2.36667 NRS=0.75 m=1 nf=1 $X=43235 $Y=191875 $D=8
M112 330 ypass[1] VDD VDD pfet_05v0 L=6e-07 W=2.97e-06 AD=9.801e-13 AS=1.83769e-12 PD=4.29e-06 PS=5.445e-06 NRD=0.444444 NRS=0.833333 m=1 nf=2 $X=42590 $Y=87735 $D=8
M113 479 480 VDD VDD pfet_05v0 L=6e-07 W=6e-07 AD=2.7e-13 AS=8.52e-13 PD=2.1e-06 PS=5.32e-06 NRD=0.75 NRS=2.36667 m=1 nf=1 $X=44375 $Y=190595 $D=8
M114 242 244 VDD VDD pfet_05v0 L=6e-07 W=6e-07 AD=2.7e-13 AS=8.52e-13 PD=2.1e-06 PS=5.32e-06 NRD=0.75 NRS=2.36667 m=1 nf=1 $X=44375 $Y=191875 $D=8
M115 VDD 477 478 VDD pfet_05v0 L=6e-07 W=6e-07 AD=8.52e-13 AS=2.7e-13 PD=5.32e-06 PS=2.1e-06 NRD=2.36667 NRS=0.75 m=1 nf=1 $X=46235 $Y=190595 $D=8
M116 VDD 238 240 VDD pfet_05v0 L=6e-07 W=6e-07 AD=8.52e-13 AS=2.7e-13 PD=5.32e-06 PS=2.1e-06 NRD=2.36667 NRS=0.75 m=1 nf=1 $X=46235 $Y=191875 $D=8
M117 329 ypass[0] VDD VDD pfet_05v0 L=6e-07 W=2.97e-06 AD=9.801e-13 AS=1.8414e-12 PD=4.29e-06 PS=6.935e-06 NRD=0.444444 NRS=0.835017 m=1 nf=2 $X=45120 $Y=87735 $D=8
M118 477 478 VDD VDD pfet_05v0 L=6e-07 W=6e-07 AD=2.7e-13 AS=8.52e-13 PD=2.1e-06 PS=5.32e-06 NRD=0.75 NRS=2.36667 m=1 nf=1 $X=47375 $Y=190595 $D=8
M119 238 240 VDD VDD pfet_05v0 L=6e-07 W=6e-07 AD=2.7e-13 AS=8.52e-13 PD=2.1e-06 PS=5.32e-06 NRD=0.75 NRS=2.36667 m=1 nf=1 $X=47375 $Y=191875 $D=8
M120 VDD 266 268 VDD pfet_05v0 L=6e-07 W=6e-07 AD=8.52e-13 AS=2.7e-13 PD=5.32e-06 PS=2.1e-06 NRD=2.36667 NRS=0.75 m=1 nf=1 $X=52235 $Y=154595 $D=8
M121 VDD 376 375 VDD pfet_05v0 L=6e-07 W=6e-07 AD=8.52e-13 AS=2.7e-13 PD=5.32e-06 PS=2.1e-06 NRD=2.36667 NRS=0.75 m=1 nf=1 $X=52235 $Y=155875 $D=8
M122 VDD 384 383 VDD pfet_05v0 L=6e-07 W=6e-07 AD=8.52e-13 AS=2.7e-13 PD=5.32e-06 PS=2.1e-06 NRD=2.36667 NRS=0.75 m=1 nf=1 $X=52235 $Y=190595 $D=8
M123 VDD 413 414 VDD pfet_05v0 L=6e-07 W=6e-07 AD=8.52e-13 AS=2.7e-13 PD=5.32e-06 PS=2.1e-06 NRD=2.36667 NRS=0.75 m=1 nf=1 $X=52235 $Y=191875 $D=8
M124 266 268 VDD VDD pfet_05v0 L=6e-07 W=6e-07 AD=2.7e-13 AS=8.52e-13 PD=2.1e-06 PS=5.32e-06 NRD=0.75 NRS=2.36667 m=1 nf=1 $X=53375 $Y=154595 $D=8
M125 376 375 VDD VDD pfet_05v0 L=6e-07 W=6e-07 AD=2.7e-13 AS=8.52e-13 PD=2.1e-06 PS=5.32e-06 NRD=0.75 NRS=2.36667 m=1 nf=1 $X=53375 $Y=155875 $D=8
M126 384 383 VDD VDD pfet_05v0 L=6e-07 W=6e-07 AD=2.7e-13 AS=8.52e-13 PD=2.1e-06 PS=5.32e-06 NRD=0.75 NRS=2.36667 m=1 nf=1 $X=53375 $Y=190595 $D=8
M127 413 414 VDD VDD pfet_05v0 L=6e-07 W=6e-07 AD=2.7e-13 AS=8.52e-13 PD=2.1e-06 PS=5.32e-06 NRD=0.75 NRS=2.36667 m=1 nf=1 $X=53375 $Y=191875 $D=8
M128 446 ypass[7] VDD VDD pfet_05v0 L=6e-07 W=2.97e-06 AD=9.801e-13 AS=1.8414e-12 PD=4.29e-06 PS=6.935e-06 NRD=0.444444 NRS=0.835017 m=1 nf=2 $X=53230 $Y=87735 $D=8
M129 VDD 262 264 VDD pfet_05v0 L=6e-07 W=6e-07 AD=8.52e-13 AS=2.7e-13 PD=5.32e-06 PS=2.1e-06 NRD=2.36667 NRS=0.75 m=1 nf=1 $X=55235 $Y=154595 $D=8
M130 VDD 378 377 VDD pfet_05v0 L=6e-07 W=6e-07 AD=8.52e-13 AS=2.7e-13 PD=5.32e-06 PS=2.1e-06 NRD=2.36667 NRS=0.75 m=1 nf=1 $X=55235 $Y=155875 $D=8
M131 VDD 386 385 VDD pfet_05v0 L=6e-07 W=6e-07 AD=8.52e-13 AS=2.7e-13 PD=5.32e-06 PS=2.1e-06 NRD=2.36667 NRS=0.75 m=1 nf=1 $X=55235 $Y=190595 $D=8
M132 VDD 411 412 VDD pfet_05v0 L=6e-07 W=6e-07 AD=8.52e-13 AS=2.7e-13 PD=5.32e-06 PS=2.1e-06 NRD=2.36667 NRS=0.75 m=1 nf=1 $X=55235 $Y=191875 $D=8
M133 262 264 VDD VDD pfet_05v0 L=6e-07 W=6e-07 AD=2.7e-13 AS=8.52e-13 PD=2.1e-06 PS=5.32e-06 NRD=0.75 NRS=2.36667 m=1 nf=1 $X=56375 $Y=154595 $D=8
M134 378 377 VDD VDD pfet_05v0 L=6e-07 W=6e-07 AD=2.7e-13 AS=8.52e-13 PD=2.1e-06 PS=5.32e-06 NRD=0.75 NRS=2.36667 m=1 nf=1 $X=56375 $Y=155875 $D=8
M135 386 385 VDD VDD pfet_05v0 L=6e-07 W=6e-07 AD=2.7e-13 AS=8.52e-13 PD=2.1e-06 PS=5.32e-06 NRD=0.75 NRS=2.36667 m=1 nf=1 $X=56375 $Y=190595 $D=8
M136 411 412 VDD VDD pfet_05v0 L=6e-07 W=6e-07 AD=2.7e-13 AS=8.52e-13 PD=2.1e-06 PS=5.32e-06 NRD=0.75 NRS=2.36667 m=1 nf=1 $X=56375 $Y=191875 $D=8
M137 447 ypass[6] VDD VDD pfet_05v0 L=6e-07 W=2.97e-06 AD=9.801e-13 AS=1.83769e-12 PD=4.29e-06 PS=5.445e-06 NRD=0.444444 NRS=0.833333 m=1 nf=2 $X=55760 $Y=87735 $D=8
M138 VDD 258 260 VDD pfet_05v0 L=6e-07 W=6e-07 AD=8.52e-13 AS=2.7e-13 PD=5.32e-06 PS=2.1e-06 NRD=2.36667 NRS=0.75 m=1 nf=1 $X=58235 $Y=154595 $D=8
M139 VDD 380 379 VDD pfet_05v0 L=6e-07 W=6e-07 AD=8.52e-13 AS=2.7e-13 PD=5.32e-06 PS=2.1e-06 NRD=2.36667 NRS=0.75 m=1 nf=1 $X=58235 $Y=155875 $D=8
M140 VDD 388 387 VDD pfet_05v0 L=6e-07 W=6e-07 AD=8.52e-13 AS=2.7e-13 PD=5.32e-06 PS=2.1e-06 NRD=2.36667 NRS=0.75 m=1 nf=1 $X=58235 $Y=190595 $D=8
M141 VDD 409 410 VDD pfet_05v0 L=6e-07 W=6e-07 AD=8.52e-13 AS=2.7e-13 PD=5.32e-06 PS=2.1e-06 NRD=2.36667 NRS=0.75 m=1 nf=1 $X=58235 $Y=191875 $D=8
M142 258 260 VDD VDD pfet_05v0 L=6e-07 W=6e-07 AD=2.7e-13 AS=8.52e-13 PD=2.1e-06 PS=5.32e-06 NRD=0.75 NRS=2.36667 m=1 nf=1 $X=59375 $Y=154595 $D=8
M143 380 379 VDD VDD pfet_05v0 L=6e-07 W=6e-07 AD=2.7e-13 AS=8.52e-13 PD=2.1e-06 PS=5.32e-06 NRD=0.75 NRS=2.36667 m=1 nf=1 $X=59375 $Y=155875 $D=8
M144 388 387 VDD VDD pfet_05v0 L=6e-07 W=6e-07 AD=2.7e-13 AS=8.52e-13 PD=2.1e-06 PS=5.32e-06 NRD=0.75 NRS=2.36667 m=1 nf=1 $X=59375 $Y=190595 $D=8
M145 409 410 VDD VDD pfet_05v0 L=6e-07 W=6e-07 AD=2.7e-13 AS=8.52e-13 PD=2.1e-06 PS=5.32e-06 NRD=0.75 NRS=2.36667 m=1 nf=1 $X=59375 $Y=191875 $D=8
M146 448 ypass[5] VDD VDD pfet_05v0 L=6e-07 W=2.97e-06 AD=9.801e-13 AS=1.83769e-12 PD=4.29e-06 PS=5.445e-06 NRD=0.444444 NRS=0.833333 m=1 nf=2 $X=59425 $Y=87735 $D=8
M147 VDD 254 256 VDD pfet_05v0 L=6e-07 W=6e-07 AD=8.52e-13 AS=2.7e-13 PD=5.32e-06 PS=2.1e-06 NRD=2.36667 NRS=0.75 m=1 nf=1 $X=61235 $Y=154595 $D=8
M148 VDD 382 381 VDD pfet_05v0 L=6e-07 W=6e-07 AD=8.52e-13 AS=2.7e-13 PD=5.32e-06 PS=2.1e-06 NRD=2.36667 NRS=0.75 m=1 nf=1 $X=61235 $Y=155875 $D=8
M149 VDD 390 389 VDD pfet_05v0 L=6e-07 W=6e-07 AD=8.52e-13 AS=2.7e-13 PD=5.32e-06 PS=2.1e-06 NRD=2.36667 NRS=0.75 m=1 nf=1 $X=61235 $Y=190595 $D=8
M150 VDD 407 408 VDD pfet_05v0 L=6e-07 W=6e-07 AD=8.52e-13 AS=2.7e-13 PD=5.32e-06 PS=2.1e-06 NRD=2.36667 NRS=0.75 m=1 nf=1 $X=61235 $Y=191875 $D=8
M151 254 256 VDD VDD pfet_05v0 L=6e-07 W=6e-07 AD=2.7e-13 AS=8.52e-13 PD=2.1e-06 PS=5.32e-06 NRD=0.75 NRS=2.36667 m=1 nf=1 $X=62375 $Y=154595 $D=8
M152 382 381 VDD VDD pfet_05v0 L=6e-07 W=6e-07 AD=2.7e-13 AS=8.52e-13 PD=2.1e-06 PS=5.32e-06 NRD=0.75 NRS=2.36667 m=1 nf=1 $X=62375 $Y=155875 $D=8
M153 390 389 VDD VDD pfet_05v0 L=6e-07 W=6e-07 AD=2.7e-13 AS=8.52e-13 PD=2.1e-06 PS=5.32e-06 NRD=0.75 NRS=2.36667 m=1 nf=1 $X=62375 $Y=190595 $D=8
M154 407 408 VDD VDD pfet_05v0 L=6e-07 W=6e-07 AD=2.7e-13 AS=8.52e-13 PD=2.1e-06 PS=5.32e-06 NRD=0.75 NRS=2.36667 m=1 nf=1 $X=62375 $Y=191875 $D=8
M155 449 ypass[4] VDD VDD pfet_05v0 L=6e-07 W=2.97e-06 AD=9.801e-13 AS=1.83397e-12 PD=4.29e-06 PS=5.44e-06 NRD=0.444444 NRS=0.83165 m=1 nf=2 $X=61955 $Y=87735 $D=8
M156 VDD 162 164 VDD pfet_05v0 L=6e-07 W=6e-07 AD=8.52e-13 AS=2.7e-13 PD=5.32e-06 PS=2.1e-06 NRD=2.36667 NRS=0.75 m=1 nf=1 $X=64235 $Y=154595 $D=8
M157 VDD 392 391 VDD pfet_05v0 L=6e-07 W=6e-07 AD=8.52e-13 AS=2.7e-13 PD=5.32e-06 PS=2.1e-06 NRD=2.36667 NRS=0.75 m=1 nf=1 $X=64235 $Y=155875 $D=8
M158 VDD 400 399 VDD pfet_05v0 L=6e-07 W=6e-07 AD=8.52e-13 AS=2.7e-13 PD=5.32e-06 PS=2.1e-06 NRD=2.36667 NRS=0.75 m=1 nf=1 $X=64235 $Y=190595 $D=8
M159 VDD 421 422 VDD pfet_05v0 L=6e-07 W=6e-07 AD=8.52e-13 AS=2.7e-13 PD=5.32e-06 PS=2.1e-06 NRD=2.36667 NRS=0.75 m=1 nf=1 $X=64235 $Y=191875 $D=8
M160 162 164 VDD VDD pfet_05v0 L=6e-07 W=6e-07 AD=2.7e-13 AS=8.52e-13 PD=2.1e-06 PS=5.32e-06 NRD=0.75 NRS=2.36667 m=1 nf=1 $X=65375 $Y=154595 $D=8
M161 392 391 VDD VDD pfet_05v0 L=6e-07 W=6e-07 AD=2.7e-13 AS=8.52e-13 PD=2.1e-06 PS=5.32e-06 NRD=0.75 NRS=2.36667 m=1 nf=1 $X=65375 $Y=155875 $D=8
M162 400 399 VDD VDD pfet_05v0 L=6e-07 W=6e-07 AD=2.7e-13 AS=8.52e-13 PD=2.1e-06 PS=5.32e-06 NRD=0.75 NRS=2.36667 m=1 nf=1 $X=65375 $Y=190595 $D=8
M163 421 422 VDD VDD pfet_05v0 L=6e-07 W=6e-07 AD=2.7e-13 AS=8.52e-13 PD=2.1e-06 PS=5.32e-06 NRD=0.75 NRS=2.36667 m=1 nf=1 $X=65375 $Y=191875 $D=8
M164 450 ypass[3] VDD VDD pfet_05v0 L=6e-07 W=2.97e-06 AD=9.801e-13 AS=1.83397e-12 PD=4.29e-06 PS=5.44e-06 NRD=0.444444 NRS=0.83165 m=1 nf=2 $X=65615 $Y=87735 $D=8
M165 VDD 158 160 VDD pfet_05v0 L=6e-07 W=6e-07 AD=8.52e-13 AS=2.7e-13 PD=5.32e-06 PS=2.1e-06 NRD=2.36667 NRS=0.75 m=1 nf=1 $X=67235 $Y=154595 $D=8
M166 VDD 394 393 VDD pfet_05v0 L=6e-07 W=6e-07 AD=8.52e-13 AS=2.7e-13 PD=5.32e-06 PS=2.1e-06 NRD=2.36667 NRS=0.75 m=1 nf=1 $X=67235 $Y=155875 $D=8
M167 VDD 402 401 VDD pfet_05v0 L=6e-07 W=6e-07 AD=8.52e-13 AS=2.7e-13 PD=5.32e-06 PS=2.1e-06 NRD=2.36667 NRS=0.75 m=1 nf=1 $X=67235 $Y=190595 $D=8
M168 VDD 419 420 VDD pfet_05v0 L=6e-07 W=6e-07 AD=8.52e-13 AS=2.7e-13 PD=5.32e-06 PS=2.1e-06 NRD=2.36667 NRS=0.75 m=1 nf=1 $X=67235 $Y=191875 $D=8
M169 158 160 VDD VDD pfet_05v0 L=6e-07 W=6e-07 AD=2.7e-13 AS=8.52e-13 PD=2.1e-06 PS=5.32e-06 NRD=0.75 NRS=2.36667 m=1 nf=1 $X=68375 $Y=154595 $D=8
M170 394 393 VDD VDD pfet_05v0 L=6e-07 W=6e-07 AD=2.7e-13 AS=8.52e-13 PD=2.1e-06 PS=5.32e-06 NRD=0.75 NRS=2.36667 m=1 nf=1 $X=68375 $Y=155875 $D=8
M171 402 401 VDD VDD pfet_05v0 L=6e-07 W=6e-07 AD=2.7e-13 AS=8.52e-13 PD=2.1e-06 PS=5.32e-06 NRD=0.75 NRS=2.36667 m=1 nf=1 $X=68375 $Y=190595 $D=8
M172 419 420 VDD VDD pfet_05v0 L=6e-07 W=6e-07 AD=2.7e-13 AS=8.52e-13 PD=2.1e-06 PS=5.32e-06 NRD=0.75 NRS=2.36667 m=1 nf=1 $X=68375 $Y=191875 $D=8
M173 451 ypass[2] VDD VDD pfet_05v0 L=6e-07 W=2.97e-06 AD=9.801e-13 AS=1.83769e-12 PD=4.29e-06 PS=5.445e-06 NRD=0.444444 NRS=0.833333 m=1 nf=2 $X=68145 $Y=87735 $D=8
M174 VDD 170 172 VDD pfet_05v0 L=6e-07 W=6e-07 AD=8.52e-13 AS=2.7e-13 PD=5.32e-06 PS=2.1e-06 NRD=2.36667 NRS=0.75 m=1 nf=1 $X=70235 $Y=154595 $D=8
M175 VDD 396 395 VDD pfet_05v0 L=6e-07 W=6e-07 AD=8.52e-13 AS=2.7e-13 PD=5.32e-06 PS=2.1e-06 NRD=2.36667 NRS=0.75 m=1 nf=1 $X=70235 $Y=155875 $D=8
M176 VDD 404 403 VDD pfet_05v0 L=6e-07 W=6e-07 AD=8.52e-13 AS=2.7e-13 PD=5.32e-06 PS=2.1e-06 NRD=2.36667 NRS=0.75 m=1 nf=1 $X=70235 $Y=190595 $D=8
M177 VDD 417 418 VDD pfet_05v0 L=6e-07 W=6e-07 AD=8.52e-13 AS=2.7e-13 PD=5.32e-06 PS=2.1e-06 NRD=2.36667 NRS=0.75 m=1 nf=1 $X=70235 $Y=191875 $D=8
M178 170 172 VDD VDD pfet_05v0 L=6e-07 W=6e-07 AD=2.7e-13 AS=8.52e-13 PD=2.1e-06 PS=5.32e-06 NRD=0.75 NRS=2.36667 m=1 nf=1 $X=71375 $Y=154595 $D=8
M179 396 395 VDD VDD pfet_05v0 L=6e-07 W=6e-07 AD=2.7e-13 AS=8.52e-13 PD=2.1e-06 PS=5.32e-06 NRD=0.75 NRS=2.36667 m=1 nf=1 $X=71375 $Y=155875 $D=8
M180 404 403 VDD VDD pfet_05v0 L=6e-07 W=6e-07 AD=2.7e-13 AS=8.52e-13 PD=2.1e-06 PS=5.32e-06 NRD=0.75 NRS=2.36667 m=1 nf=1 $X=71375 $Y=190595 $D=8
M181 417 418 VDD VDD pfet_05v0 L=6e-07 W=6e-07 AD=2.7e-13 AS=8.52e-13 PD=2.1e-06 PS=5.32e-06 NRD=0.75 NRS=2.36667 m=1 nf=1 $X=71375 $Y=191875 $D=8
M182 452 ypass[1] VDD VDD pfet_05v0 L=6e-07 W=2.97e-06 AD=9.801e-13 AS=1.83769e-12 PD=4.29e-06 PS=5.445e-06 NRD=0.444444 NRS=0.833333 m=1 nf=2 $X=71810 $Y=87735 $D=8
M183 VDD 166 168 VDD pfet_05v0 L=6e-07 W=6e-07 AD=8.52e-13 AS=2.7e-13 PD=5.32e-06 PS=2.1e-06 NRD=2.36667 NRS=0.75 m=1 nf=1 $X=73235 $Y=154595 $D=8
M184 VDD 398 397 VDD pfet_05v0 L=6e-07 W=6e-07 AD=8.52e-13 AS=2.7e-13 PD=5.32e-06 PS=2.1e-06 NRD=2.36667 NRS=0.75 m=1 nf=1 $X=73235 $Y=155875 $D=8
M185 VDD 406 405 VDD pfet_05v0 L=6e-07 W=6e-07 AD=8.52e-13 AS=2.7e-13 PD=5.32e-06 PS=2.1e-06 NRD=2.36667 NRS=0.75 m=1 nf=1 $X=73235 $Y=190595 $D=8
M186 VDD 415 416 VDD pfet_05v0 L=6e-07 W=6e-07 AD=8.52e-13 AS=2.7e-13 PD=5.32e-06 PS=2.1e-06 NRD=2.36667 NRS=0.75 m=1 nf=1 $X=73235 $Y=191875 $D=8
M187 166 168 VDD VDD pfet_05v0 L=6e-07 W=6e-07 AD=2.7e-13 AS=8.52e-13 PD=2.1e-06 PS=5.32e-06 NRD=0.75 NRS=2.36667 m=1 nf=1 $X=74375 $Y=154595 $D=8
M188 398 397 VDD VDD pfet_05v0 L=6e-07 W=6e-07 AD=2.7e-13 AS=8.52e-13 PD=2.1e-06 PS=5.32e-06 NRD=0.75 NRS=2.36667 m=1 nf=1 $X=74375 $Y=155875 $D=8
M189 406 405 VDD VDD pfet_05v0 L=6e-07 W=6e-07 AD=2.7e-13 AS=8.52e-13 PD=2.1e-06 PS=5.32e-06 NRD=0.75 NRS=2.36667 m=1 nf=1 $X=74375 $Y=190595 $D=8
M190 415 416 VDD VDD pfet_05v0 L=6e-07 W=6e-07 AD=2.7e-13 AS=8.52e-13 PD=2.1e-06 PS=5.32e-06 NRD=0.75 NRS=2.36667 m=1 nf=1 $X=74375 $Y=191875 $D=8
M191 328 ypass[0] VDD VDD pfet_05v0 L=6e-07 W=2.97e-06 AD=9.72675e-13 AS=1.84882e-12 PD=4.28e-06 PS=5.46e-06 NRD=0.441077 NRS=0.838384 m=1 nf=2 $X=74340 $Y=87735 $D=8
M192 VDD 491 492 VDD pfet_05v0 L=6e-07 W=6e-07 AD=8.52e-13 AS=2.7e-13 PD=5.32e-06 PS=2.1e-06 NRD=2.36667 NRS=0.75 m=1 nf=1 $X=79235 $Y=190595 $D=8
M193 VDD 429 430 VDD pfet_05v0 L=6e-07 W=6e-07 AD=8.52e-13 AS=2.7e-13 PD=5.32e-06 PS=2.1e-06 NRD=2.36667 NRS=0.75 m=1 nf=1 $X=79235 $Y=191875 $D=8
M194 326 ypass[7] VDD VDD pfet_05v0 L=6e-07 W=2.97e-06 AD=9.72675e-13 AS=1.84882e-12 PD=4.28e-06 PS=5.46e-06 NRD=0.441077 NRS=0.838384 m=1 nf=2 $X=78015 $Y=87735 $D=8