* Subcircuit definition of cell rcol4_64
.SUBCKT rcol4_64 VSS tblhl pcb[4] VDD DWL WEN[6] pcb[6] 8 9 men WEN[4] 12 13 WEN[7] pcb[7] 16 17 WEN[5] pcb[5] 20
+ 21 WL[0] WL[1] WL[2] WL[3] WL[4] WL[5] WL[6] WL[7] GWE GWEN ypass[1] ypass[0] ypass[2] ypass[3] ypass[4] ypass[5] ypass[6] ypass[7] din[5]
+ q[5] din[7] q[7] din[4] q[4] din[6] q[6] 390 391 392 393 394 395 396 397 398 399 400 401 402
+ 403 404 405 406 407 408 409 410 411 412 413 414 415 416 417 418 419 420 421 422
+ 423 424 425 426 427 428 429 430 431 432 433 434 435 436 437 438 439 440 441 442
+ 443 444 445
** N=665 EP=103 IP=1279 FDC=2834
*.SEEDPROM
M0 195 VSS 83 VSS nfet_05v0 L=7.7e-07 W=6e-07 AD=2.81613e-13 AS=2.82e-13 PD=1.84258e-06 PS=2.14e-06 NRD=0.782258 NRS=0.783333 m=1 nf=1 $X=1715 $Y=151295 $D=2
M1 83 VSS 197 VSS nfet_05v0 L=7.7e-07 W=6e-07 AD=2.82e-13 AS=2.81613e-13 PD=2.14e-06 PS=1.84258e-06 NRD=0.783333 NRS=0.782258 m=1 nf=1 $X=1715 $Y=195005 $D=2
M2 VSS 194 195 VSS nfet_05v0 L=6e-07 W=9.5e-07 AD=1.84565e-14 AS=1.18957e-13 PD=-7.88406e-08 PS=9.41159e-07 NRD=0.0204504 NRS=0.131808 m=1 nf=1 $X=2165 $Y=152745 $D=2
M3 VSS 196 197 VSS nfet_05v0 L=6e-07 W=9.5e-07 AD=1.84565e-14 AS=1.18957e-13 PD=-7.88406e-08 PS=9.41159e-07 NRD=0.0204504 NRS=0.131808 m=1 nf=1 $X=2165 $Y=193375 $D=2
M4 194 195 VSS VSS nfet_05v0 L=6e-07 W=9.5e-07 AD=1.18957e-13 AS=1.84565e-14 PD=9.41159e-07 PS=-7.88406e-08 NRD=0.131808 NRS=0.0204504 m=1 nf=1 $X=3305 $Y=152745 $D=2
M5 196 197 VSS VSS nfet_05v0 L=6e-07 W=9.5e-07 AD=1.18957e-13 AS=1.84565e-14 PD=9.41159e-07 PS=-7.88406e-08 NRD=0.131808 NRS=0.0204504 m=1 nf=1 $X=3305 $Y=193375 $D=2
M6 194 VSS 82 VSS nfet_05v0 L=7.7e-07 W=6e-07 AD=2.81613e-13 AS=2.82e-13 PD=1.84258e-06 PS=2.14e-06 NRD=0.782258 NRS=0.783333 m=1 nf=1 $X=3755 $Y=151295 $D=2
M7 82 VSS 196 VSS nfet_05v0 L=7.7e-07 W=6e-07 AD=2.82e-13 AS=2.81613e-13 PD=2.14e-06 PS=1.84258e-06 NRD=0.783333 NRS=0.782258 m=1 nf=1 $X=3755 $Y=195005 $D=2
M8 450 VSS 61 VSS nfet_05v0 L=7.7e-07 W=6e-07 AD=2.81613e-13 AS=2.82e-13 PD=1.84258e-06 PS=2.14e-06 NRD=0.782258 NRS=0.783333 m=1 nf=1 $X=115715 $Y=151295 $D=2
M9 61 VSS 452 VSS nfet_05v0 L=7.7e-07 W=6e-07 AD=-2.739e-13 AS=1.416e-13 PD=-1.70545e-06 PS=8.14545e-07 NRD=-0.760833 NRS=0.393333 m=1 nf=1 $X=115715 $Y=168005 $D=2
M10 454 VSS 61 VSS nfet_05v0 L=7.7e-07 W=6e-07 AD=1.416e-13 AS=-2.739e-13 PD=8.14545e-07 PS=-1.70545e-06 NRD=0.393333 NRS=-0.760833 m=1 nf=1 $X=115715 $Y=169295 $D=2
M11 61 DWL 456 VSS nfet_05v0 L=7.7e-07 W=6e-07 AD=-2.739e-13 AS=1.416e-13 PD=-1.70545e-06 PS=8.14545e-07 NRD=-0.760833 NRS=0.393333 m=1 nf=1 $X=115715 $Y=186005 $D=2
M12 446 DWL 61 VSS nfet_05v0 L=7.7e-07 W=6e-07 AD=1.416e-13 AS=-2.739e-13 PD=8.14545e-07 PS=-1.70545e-06 NRD=0.393333 NRS=-0.760833 m=1 nf=1 $X=115715 $Y=187295 $D=2
M13 61 DWL 448 VSS nfet_05v0 L=7.7e-07 W=6e-07 AD=2.82e-13 AS=2.81613e-13 PD=2.14e-06 PS=1.84258e-06 NRD=0.783333 NRS=0.782258 m=1 nf=1 $X=115715 $Y=195005 $D=2
M14 VSS VDD 450 VSS nfet_05v0 L=6e-07 W=9.5e-07 AD=1.84565e-14 AS=1.18957e-13 PD=-7.88406e-08 PS=9.41159e-07 NRD=0.0204504 NRS=0.131808 m=1 nf=1 $X=116165 $Y=152745 $D=2
M15 VSS VDD 452 VSS nfet_05v0 L=6e-07 W=9.5e-07 AD=1.84565e-14 AS=1.18957e-13 PD=-7.88406e-08 PS=9.41159e-07 NRD=0.0204504 NRS=0.131808 m=1 nf=1 $X=116165 $Y=166375 $D=2
M16 VSS VDD 454 VSS nfet_05v0 L=6e-07 W=9.5e-07 AD=1.84565e-14 AS=1.18957e-13 PD=-7.88406e-08 PS=9.41159e-07 NRD=0.0204504 NRS=0.131808 m=1 nf=1 $X=116165 $Y=170745 $D=2
M17 VSS VDD 456 VSS nfet_05v0 L=6e-07 W=9.5e-07 AD=1.84565e-14 AS=1.18957e-13 PD=-7.88406e-08 PS=9.41159e-07 NRD=0.0204504 NRS=0.131808 m=1 nf=1 $X=116165 $Y=184375 $D=2
M18 VSS VDD 446 VSS nfet_05v0 L=6e-07 W=9.5e-07 AD=1.84565e-14 AS=1.18957e-13 PD=-7.88406e-08 PS=9.41159e-07 NRD=0.0204504 NRS=0.131808 m=1 nf=1 $X=116165 $Y=188745 $D=2
M19 VSS VDD 448 VSS nfet_05v0 L=6e-07 W=9.5e-07 AD=1.84565e-14 AS=1.18957e-13 PD=-7.88406e-08 PS=9.41159e-07 NRD=0.0204504 NRS=0.131808 m=1 nf=1 $X=116165 $Y=193375 $D=2
M20 451 VSS VSS VSS nfet_05v0 L=6e-07 W=9.5e-07 AD=1.18957e-13 AS=1.84565e-14 PD=9.41159e-07 PS=-7.88406e-08 NRD=0.131808 NRS=0.0204504 m=1 nf=1 $X=117305 $Y=152745 $D=2
M21 453 VSS VSS VSS nfet_05v0 L=6e-07 W=9.5e-07 AD=1.18957e-13 AS=1.84565e-14 PD=9.41159e-07 PS=-7.88406e-08 NRD=0.131808 NRS=0.0204504 m=1 nf=1 $X=117305 $Y=166375 $D=2
M22 455 VSS VSS VSS nfet_05v0 L=6e-07 W=9.5e-07 AD=1.18957e-13 AS=1.84565e-14 PD=9.41159e-07 PS=-7.88406e-08 NRD=0.131808 NRS=0.0204504 m=1 nf=1 $X=117305 $Y=170745 $D=2
M23 457 VSS VSS VSS nfet_05v0 L=6e-07 W=9.5e-07 AD=1.18957e-13 AS=1.84565e-14 PD=9.41159e-07 PS=-7.88406e-08 NRD=0.131808 NRS=0.0204504 m=1 nf=1 $X=117305 $Y=184375 $D=2
M24 447 VSS VSS VSS nfet_05v0 L=6e-07 W=9.5e-07 AD=1.18957e-13 AS=1.84565e-14 PD=9.41159e-07 PS=-7.88406e-08 NRD=0.131808 NRS=0.0204504 m=1 nf=1 $X=117305 $Y=188745 $D=2
M25 449 VSS VSS VSS nfet_05v0 L=6e-07 W=9.5e-07 AD=1.18957e-13 AS=1.84565e-14 PD=9.41159e-07 PS=-7.88406e-08 NRD=0.131808 NRS=0.0204504 m=1 nf=1 $X=117305 $Y=193375 $D=2
M26 55 61 VSS VSS nfet_05v0 L=6e-07 W=2.76e-06 AD=7.176e-13 AS=1.2144e-12 PD=3.8e-06 PS=7.28e-06 NRD=0.376812 NRS=0.637681 m=1 nf=2 $X=116215 $Y=69445 $D=2
M27 tblhl 55 VSS VSS nfet_05v0 L=6e-07 W=1.7e-05 AD=4.42e-12 AS=7.48e-12 PD=1.804e-05 PS=3.576e-05 NRD=0.0611765 NRS=0.103529 m=1 nf=2 $X=116235 $Y=54020 $D=2
M28 63 VDD VSS VSS nfet_05v0 L=6e-07 W=1.14e-06 AD=2.964e-13 AS=5.016e-13 PD=2.18e-06 PS=4.04e-06 NRD=0.912281 NRS=1.54386 m=1 nf=2 $X=116460 $Y=85710 $D=2
M29 451 VSS 62 VSS nfet_05v0 L=7.7e-07 W=6e-07 AD=2.81613e-13 AS=2.82e-13 PD=1.84258e-06 PS=2.14e-06 NRD=0.782258 NRS=0.783333 m=1 nf=1 $X=117755 $Y=151295 $D=2
M30 62 VSS 453 VSS nfet_05v0 L=7.7e-07 W=6e-07 AD=-2.739e-13 AS=1.416e-13 PD=-1.70545e-06 PS=8.14545e-07 NRD=-0.760833 NRS=0.393333 m=1 nf=1 $X=117755 $Y=168005 $D=2
M31 455 VSS 62 VSS nfet_05v0 L=7.7e-07 W=6e-07 AD=1.416e-13 AS=-2.739e-13 PD=8.14545e-07 PS=-1.70545e-06 NRD=0.393333 NRS=-0.760833 m=1 nf=1 $X=117755 $Y=169295 $D=2
M32 62 DWL 457 VSS nfet_05v0 L=7.7e-07 W=6e-07 AD=-2.739e-13 AS=1.416e-13 PD=-1.70545e-06 PS=8.14545e-07 NRD=-0.760833 NRS=0.393333 m=1 nf=1 $X=117755 $Y=186005 $D=2
M33 447 DWL 62 VSS nfet_05v0 L=7.7e-07 W=6e-07 AD=1.416e-13 AS=-2.739e-13 PD=8.14545e-07 PS=-1.70545e-06 NRD=0.393333 NRS=-0.760833 m=1 nf=1 $X=117755 $Y=187295 $D=2
M34 62 DWL 449 VSS nfet_05v0 L=7.7e-07 W=6e-07 AD=2.82e-13 AS=2.81613e-13 PD=2.14e-06 PS=1.84258e-06 NRD=0.783333 NRS=0.782258 m=1 nf=1 $X=117755 $Y=195005 $D=2
M35 VDD 194 195 VDD pfet_05v0 L=6e-07 W=6e-07 AD=8.52e-13 AS=2.7e-13 PD=5.32e-06 PS=2.1e-06 NRD=2.36667 NRS=0.75 m=1 nf=1 $X=2165 $Y=154595 $D=8
M36 VDD 650 652 VDD pfet_05v0 L=6e-07 W=6e-07 AD=8.52e-13 AS=2.7e-13 PD=5.32e-06 PS=2.1e-06 NRD=2.36667 NRS=0.75 m=1 nf=1 $X=2165 $Y=155875 $D=8
M37 VDD 651 653 VDD pfet_05v0 L=6e-07 W=6e-07 AD=8.52e-13 AS=2.7e-13 PD=5.32e-06 PS=2.1e-06 NRD=2.36667 NRS=0.75 m=1 nf=1 $X=2165 $Y=163595 $D=8
M38 VDD 654 656 VDD pfet_05v0 L=6e-07 W=6e-07 AD=8.52e-13 AS=2.7e-13 PD=5.32e-06 PS=2.1e-06 NRD=2.36667 NRS=0.75 m=1 nf=1 $X=2165 $Y=164875 $D=8
M39 VDD 655 657 VDD pfet_05v0 L=6e-07 W=6e-07 AD=8.52e-13 AS=2.7e-13 PD=5.32e-06 PS=2.1e-06 NRD=2.36667 NRS=0.75 m=1 nf=1 $X=2165 $Y=172595 $D=8
M40 VDD 658 660 VDD pfet_05v0 L=6e-07 W=6e-07 AD=8.52e-13 AS=2.7e-13 PD=5.32e-06 PS=2.1e-06 NRD=2.36667 NRS=0.75 m=1 nf=1 $X=2165 $Y=173875 $D=8
M41 VDD 659 661 VDD pfet_05v0 L=6e-07 W=6e-07 AD=8.52e-13 AS=2.7e-13 PD=5.32e-06 PS=2.1e-06 NRD=2.36667 NRS=0.75 m=1 nf=1 $X=2165 $Y=181595 $D=8
M42 VDD 662 664 VDD pfet_05v0 L=6e-07 W=6e-07 AD=8.52e-13 AS=2.7e-13 PD=5.32e-06 PS=2.1e-06 NRD=2.36667 NRS=0.75 m=1 nf=1 $X=2165 $Y=182875 $D=8
M43 VDD 663 665 VDD pfet_05v0 L=6e-07 W=6e-07 AD=8.52e-13 AS=2.7e-13 PD=5.32e-06 PS=2.1e-06 NRD=2.36667 NRS=0.75 m=1 nf=1 $X=2165 $Y=190595 $D=8
M44 VDD 196 197 VDD pfet_05v0 L=6e-07 W=6e-07 AD=8.52e-13 AS=2.7e-13 PD=5.32e-06 PS=2.1e-06 NRD=2.36667 NRS=0.75 m=1 nf=1 $X=2165 $Y=191875 $D=8
M45 194 195 VDD VDD pfet_05v0 L=6e-07 W=6e-07 AD=2.7e-13 AS=8.52e-13 PD=2.1e-06 PS=5.32e-06 NRD=0.75 NRS=2.36667 m=1 nf=1 $X=3305 $Y=154595 $D=8
M46 650 652 VDD VDD pfet_05v0 L=6e-07 W=6e-07 AD=2.7e-13 AS=8.52e-13 PD=2.1e-06 PS=5.32e-06 NRD=0.75 NRS=2.36667 m=1 nf=1 $X=3305 $Y=155875 $D=8
M47 651 653 VDD VDD pfet_05v0 L=6e-07 W=6e-07 AD=2.7e-13 AS=8.52e-13 PD=2.1e-06 PS=5.32e-06 NRD=0.75 NRS=2.36667 m=1 nf=1 $X=3305 $Y=163595 $D=8
M48 654 656 VDD VDD pfet_05v0 L=6e-07 W=6e-07 AD=2.7e-13 AS=8.52e-13 PD=2.1e-06 PS=5.32e-06 NRD=0.75 NRS=2.36667 m=1 nf=1 $X=3305 $Y=164875 $D=8
M49 655 657 VDD VDD pfet_05v0 L=6e-07 W=6e-07 AD=2.7e-13 AS=8.52e-13 PD=2.1e-06 PS=5.32e-06 NRD=0.75 NRS=2.36667 m=1 nf=1 $X=3305 $Y=172595 $D=8
M50 658 660 VDD VDD pfet_05v0 L=6e-07 W=6e-07 AD=2.7e-13 AS=8.52e-13 PD=2.1e-06 PS=5.32e-06 NRD=0.75 NRS=2.36667 m=1 nf=1 $X=3305 $Y=173875 $D=8
M51 659 661 VDD VDD pfet_05v0 L=6e-07 W=6e-07 AD=2.7e-13 AS=8.52e-13 PD=2.1e-06 PS=5.32e-06 NRD=0.75 NRS=2.36667 m=1 nf=1 $X=3305 $Y=181595 $D=8
M52 662 664 VDD VDD pfet_05v0 L=6e-07 W=6e-07 AD=2.7e-13 AS=8.52e-13 PD=2.1e-06 PS=5.32e-06 NRD=0.75 NRS=2.36667 m=1 nf=1 $X=3305 $Y=182875 $D=8
M53 663 665 VDD VDD pfet_05v0 L=6e-07 W=6e-07 AD=2.7e-13 AS=8.52e-13 PD=2.1e-06 PS=5.32e-06 NRD=0.75 NRS=2.36667 m=1 nf=1 $X=3305 $Y=190595 $D=8
M54 196 197 VDD VDD pfet_05v0 L=6e-07 W=6e-07 AD=2.7e-13 AS=8.52e-13 PD=2.1e-06 PS=5.32e-06 NRD=0.75 NRS=2.36667 m=1 nf=1 $X=3305 $Y=191875 $D=8
M55 VDD 323 325 VDD pfet_05v0 L=6e-07 W=6e-07 AD=8.52e-13 AS=2.7e-13 PD=5.32e-06 PS=2.1e-06 NRD=2.36667 NRS=0.75 m=1 nf=1 $X=8165 $Y=154595 $D=8
M56 VDD 541 540 VDD pfet_05v0 L=6e-07 W=6e-07 AD=8.52e-13 AS=2.7e-13 PD=5.32e-06 PS=2.1e-06 NRD=2.36667 NRS=0.75 m=1 nf=1 $X=8165 $Y=155875 $D=8
M57 VDD 549 548 VDD pfet_05v0 L=6e-07 W=6e-07 AD=8.52e-13 AS=2.7e-13 PD=5.32e-06 PS=2.1e-06 NRD=2.36667 NRS=0.75 m=1 nf=1 $X=8165 $Y=190595 $D=8
M58 VDD 243 245 VDD pfet_05v0 L=6e-07 W=6e-07 AD=8.52e-13 AS=2.7e-13 PD=5.32e-06 PS=2.1e-06 NRD=2.36667 NRS=0.75 m=1 nf=1 $X=8165 $Y=191875 $D=8
M59 323 325 VDD VDD pfet_05v0 L=6e-07 W=6e-07 AD=2.7e-13 AS=8.52e-13 PD=2.1e-06 PS=5.32e-06 NRD=0.75 NRS=2.36667 m=1 nf=1 $X=9305 $Y=154595 $D=8
M60 541 540 VDD VDD pfet_05v0 L=6e-07 W=6e-07 AD=2.7e-13 AS=8.52e-13 PD=2.1e-06 PS=5.32e-06 NRD=0.75 NRS=2.36667 m=1 nf=1 $X=9305 $Y=155875 $D=8
M61 549 548 VDD VDD pfet_05v0 L=6e-07 W=6e-07 AD=2.7e-13 AS=8.52e-13 PD=2.1e-06 PS=5.32e-06 NRD=0.75 NRS=2.36667 m=1 nf=1 $X=9305 $Y=190595 $D=8
M62 243 245 VDD VDD pfet_05v0 L=6e-07 W=6e-07 AD=2.7e-13 AS=8.52e-13 PD=2.1e-06 PS=5.32e-06 NRD=0.75 NRS=2.36667 m=1 nf=1 $X=9305 $Y=191875 $D=8
M63 636 ypass[7] VDD VDD pfet_05v0 L=6e-07 W=2.97e-06 AD=9.801e-13 AS=1.8414e-12 PD=4.29e-06 PS=6.935e-06 NRD=0.444444 NRS=0.835017 m=1 nf=2 $X=9160 $Y=87735 $D=8
M64 VDD 319 321 VDD pfet_05v0 L=6e-07 W=6e-07 AD=8.52e-13 AS=2.7e-13 PD=5.32e-06 PS=2.1e-06 NRD=2.36667 NRS=0.75 m=1 nf=1 $X=11165 $Y=154595 $D=8
M65 VDD 543 542 VDD pfet_05v0 L=6e-07 W=6e-07 AD=8.52e-13 AS=2.7e-13 PD=5.32e-06 PS=2.1e-06 NRD=2.36667 NRS=0.75 m=1 nf=1 $X=11165 $Y=155875 $D=8
M66 VDD 551 550 VDD pfet_05v0 L=6e-07 W=6e-07 AD=8.52e-13 AS=2.7e-13 PD=5.32e-06 PS=2.1e-06 NRD=2.36667 NRS=0.75 m=1 nf=1 $X=11165 $Y=190595 $D=8
M67 VDD 239 241 VDD pfet_05v0 L=6e-07 W=6e-07 AD=8.52e-13 AS=2.7e-13 PD=5.32e-06 PS=2.1e-06 NRD=2.36667 NRS=0.75 m=1 nf=1 $X=11165 $Y=191875 $D=8
M68 319 321 VDD VDD pfet_05v0 L=6e-07 W=6e-07 AD=2.7e-13 AS=8.52e-13 PD=2.1e-06 PS=5.32e-06 NRD=0.75 NRS=2.36667 m=1 nf=1 $X=12305 $Y=154595 $D=8
M69 543 542 VDD VDD pfet_05v0 L=6e-07 W=6e-07 AD=2.7e-13 AS=8.52e-13 PD=2.1e-06 PS=5.32e-06 NRD=0.75 NRS=2.36667 m=1 nf=1 $X=12305 $Y=155875 $D=8
M70 551 550 VDD VDD pfet_05v0 L=6e-07 W=6e-07 AD=2.7e-13 AS=8.52e-13 PD=2.1e-06 PS=5.32e-06 NRD=0.75 NRS=2.36667 m=1 nf=1 $X=12305 $Y=190595 $D=8
M71 239 241 VDD VDD pfet_05v0 L=6e-07 W=6e-07 AD=2.7e-13 AS=8.52e-13 PD=2.1e-06 PS=5.32e-06 NRD=0.75 NRS=2.36667 m=1 nf=1 $X=12305 $Y=191875 $D=8
M72 637 ypass[6] VDD VDD pfet_05v0 L=6e-07 W=2.97e-06 AD=9.801e-13 AS=1.83769e-12 PD=4.29e-06 PS=5.445e-06 NRD=0.444444 NRS=0.833333 m=1 nf=2 $X=11690 $Y=87735 $D=8
M73 VDD 315 317 VDD pfet_05v0 L=6e-07 W=6e-07 AD=8.52e-13 AS=2.7e-13 PD=5.32e-06 PS=2.1e-06 NRD=2.36667 NRS=0.75 m=1 nf=1 $X=14165 $Y=154595 $D=8
M74 VDD 545 544 VDD pfet_05v0 L=6e-07 W=6e-07 AD=8.52e-13 AS=2.7e-13 PD=5.32e-06 PS=2.1e-06 NRD=2.36667 NRS=0.75 m=1 nf=1 $X=14165 $Y=155875 $D=8
M75 VDD 553 552 VDD pfet_05v0 L=6e-07 W=6e-07 AD=8.52e-13 AS=2.7e-13 PD=5.32e-06 PS=2.1e-06 NRD=2.36667 NRS=0.75 m=1 nf=1 $X=14165 $Y=190595 $D=8
M76 VDD 235 237 VDD pfet_05v0 L=6e-07 W=6e-07 AD=8.52e-13 AS=2.7e-13 PD=5.32e-06 PS=2.1e-06 NRD=2.36667 NRS=0.75 m=1 nf=1 $X=14165 $Y=191875 $D=8
M77 315 317 VDD VDD pfet_05v0 L=6e-07 W=6e-07 AD=2.7e-13 AS=8.52e-13 PD=2.1e-06 PS=5.32e-06 NRD=0.75 NRS=2.36667 m=1 nf=1 $X=15305 $Y=154595 $D=8
M78 545 544 VDD VDD pfet_05v0 L=6e-07 W=6e-07 AD=2.7e-13 AS=8.52e-13 PD=2.1e-06 PS=5.32e-06 NRD=0.75 NRS=2.36667 m=1 nf=1 $X=15305 $Y=155875 $D=8
M79 553 552 VDD VDD pfet_05v0 L=6e-07 W=6e-07 AD=2.7e-13 AS=8.52e-13 PD=2.1e-06 PS=5.32e-06 NRD=0.75 NRS=2.36667 m=1 nf=1 $X=15305 $Y=190595 $D=8
M80 235 237 VDD VDD pfet_05v0 L=6e-07 W=6e-07 AD=2.7e-13 AS=8.52e-13 PD=2.1e-06 PS=5.32e-06 NRD=0.75 NRS=2.36667 m=1 nf=1 $X=15305 $Y=191875 $D=8
M81 638 ypass[5] VDD VDD pfet_05v0 L=6e-07 W=2.97e-06 AD=9.801e-13 AS=1.83769e-12 PD=4.29e-06 PS=5.445e-06 NRD=0.444444 NRS=0.833333 m=1 nf=2 $X=15355 $Y=87735 $D=8
M82 VDD 311 313 VDD pfet_05v0 L=6e-07 W=6e-07 AD=8.52e-13 AS=2.7e-13 PD=5.32e-06 PS=2.1e-06 NRD=2.36667 NRS=0.75 m=1 nf=1 $X=17165 $Y=154595 $D=8
M83 VDD 547 546 VDD pfet_05v0 L=6e-07 W=6e-07 AD=8.52e-13 AS=2.7e-13 PD=5.32e-06 PS=2.1e-06 NRD=2.36667 NRS=0.75 m=1 nf=1 $X=17165 $Y=155875 $D=8
M84 VDD 555 554 VDD pfet_05v0 L=6e-07 W=6e-07 AD=8.52e-13 AS=2.7e-13 PD=5.32e-06 PS=2.1e-06 NRD=2.36667 NRS=0.75 m=1 nf=1 $X=17165 $Y=190595 $D=8
M85 VDD 231 233 VDD pfet_05v0 L=6e-07 W=6e-07 AD=8.52e-13 AS=2.7e-13 PD=5.32e-06 PS=2.1e-06 NRD=2.36667 NRS=0.75 m=1 nf=1 $X=17165 $Y=191875 $D=8
M86 311 313 VDD VDD pfet_05v0 L=6e-07 W=6e-07 AD=2.7e-13 AS=8.52e-13 PD=2.1e-06 PS=5.32e-06 NRD=0.75 NRS=2.36667 m=1 nf=1 $X=18305 $Y=154595 $D=8
M87 547 546 VDD VDD pfet_05v0 L=6e-07 W=6e-07 AD=2.7e-13 AS=8.52e-13 PD=2.1e-06 PS=5.32e-06 NRD=0.75 NRS=2.36667 m=1 nf=1 $X=18305 $Y=155875 $D=8
M88 555 554 VDD VDD pfet_05v0 L=6e-07 W=6e-07 AD=2.7e-13 AS=8.52e-13 PD=2.1e-06 PS=5.32e-06 NRD=0.75 NRS=2.36667 m=1 nf=1 $X=18305 $Y=190595 $D=8
M89 231 233 VDD VDD pfet_05v0 L=6e-07 W=6e-07 AD=2.7e-13 AS=8.52e-13 PD=2.1e-06 PS=5.32e-06 NRD=0.75 NRS=2.36667 m=1 nf=1 $X=18305 $Y=191875 $D=8
M90 639 ypass[4] VDD VDD pfet_05v0 L=6e-07 W=2.97e-06 AD=9.801e-13 AS=1.83397e-12 PD=4.29e-06 PS=5.44e-06 NRD=0.444444 NRS=0.83165 m=1 nf=2 $X=17885 $Y=87735 $D=8
M91 VDD 203 205 VDD pfet_05v0 L=6e-07 W=6e-07 AD=8.52e-13 AS=2.7e-13 PD=5.32e-06 PS=2.1e-06 NRD=2.36667 NRS=0.75 m=1 nf=1 $X=20165 $Y=154595 $D=8
M92 VDD 557 556 VDD pfet_05v0 L=6e-07 W=6e-07 AD=8.52e-13 AS=2.7e-13 PD=5.32e-06 PS=2.1e-06 NRD=2.36667 NRS=0.75 m=1 nf=1 $X=20165 $Y=155875 $D=8
M93 VDD 565 564 VDD pfet_05v0 L=6e-07 W=6e-07 AD=8.52e-13 AS=2.7e-13 PD=5.32e-06 PS=2.1e-06 NRD=2.36667 NRS=0.75 m=1 nf=1 $X=20165 $Y=190595 $D=8
M94 VDD 259 261 VDD pfet_05v0 L=6e-07 W=6e-07 AD=8.52e-13 AS=2.7e-13 PD=5.32e-06 PS=2.1e-06 NRD=2.36667 NRS=0.75 m=1 nf=1 $X=20165 $Y=191875 $D=8
M95 203 205 VDD VDD pfet_05v0 L=6e-07 W=6e-07 AD=2.7e-13 AS=8.52e-13 PD=2.1e-06 PS=5.32e-06 NRD=0.75 NRS=2.36667 m=1 nf=1 $X=21305 $Y=154595 $D=8
M96 557 556 VDD VDD pfet_05v0 L=6e-07 W=6e-07 AD=2.7e-13 AS=8.52e-13 PD=2.1e-06 PS=5.32e-06 NRD=0.75 NRS=2.36667 m=1 nf=1 $X=21305 $Y=155875 $D=8
M97 565 564 VDD VDD pfet_05v0 L=6e-07 W=6e-07 AD=2.7e-13 AS=8.52e-13 PD=2.1e-06 PS=5.32e-06 NRD=0.75 NRS=2.36667 m=1 nf=1 $X=21305 $Y=190595 $D=8
M98 259 261 VDD VDD pfet_05v0 L=6e-07 W=6e-07 AD=2.7e-13 AS=8.52e-13 PD=2.1e-06 PS=5.32e-06 NRD=0.75 NRS=2.36667 m=1 nf=1 $X=21305 $Y=191875 $D=8
M99 640 ypass[3] VDD VDD pfet_05v0 L=6e-07 W=2.97e-06 AD=9.801e-13 AS=1.83397e-12 PD=4.29e-06 PS=5.44e-06 NRD=0.444444 NRS=0.83165 m=1 nf=2 $X=21545 $Y=87735 $D=8
M100 VDD 199 201 VDD pfet_05v0 L=6e-07 W=6e-07 AD=8.52e-13 AS=2.7e-13 PD=5.32e-06 PS=2.1e-06 NRD=2.36667 NRS=0.75 m=1 nf=1 $X=23165 $Y=154595 $D=8
M101 VDD 559 558 VDD pfet_05v0 L=6e-07 W=6e-07 AD=8.52e-13 AS=2.7e-13 PD=5.32e-06 PS=2.1e-06 NRD=2.36667 NRS=0.75 m=1 nf=1 $X=23165 $Y=155875 $D=8
M102 VDD 567 566 VDD pfet_05v0 L=6e-07 W=6e-07 AD=8.52e-13 AS=2.7e-13 PD=5.32e-06 PS=2.1e-06 NRD=2.36667 NRS=0.75 m=1 nf=1 $X=23165 $Y=190595 $D=8
M103 VDD 255 257 VDD pfet_05v0 L=6e-07 W=6e-07 AD=8.52e-13 AS=2.7e-13 PD=5.32e-06 PS=2.1e-06 NRD=2.36667 NRS=0.75 m=1 nf=1 $X=23165 $Y=191875 $D=8
M104 199 201 VDD VDD pfet_05v0 L=6e-07 W=6e-07 AD=2.7e-13 AS=8.52e-13 PD=2.1e-06 PS=5.32e-06 NRD=0.75 NRS=2.36667 m=1 nf=1 $X=24305 $Y=154595 $D=8
M105 559 558 VDD VDD pfet_05v0 L=6e-07 W=6e-07 AD=2.7e-13 AS=8.52e-13 PD=2.1e-06 PS=5.32e-06 NRD=0.75 NRS=2.36667 m=1 nf=1 $X=24305 $Y=155875 $D=8
M106 567 566 VDD VDD pfet_05v0 L=6e-07 W=6e-07 AD=2.7e-13 AS=8.52e-13 PD=2.1e-06 PS=5.32e-06 NRD=0.75 NRS=2.36667 m=1 nf=1 $X=24305 $Y=190595 $D=8
M107 255 257 VDD VDD pfet_05v0 L=6e-07 W=6e-07 AD=2.7e-13 AS=8.52e-13 PD=2.1e-06 PS=5.32e-06 NRD=0.75 NRS=2.36667 m=1 nf=1 $X=24305 $Y=191875 $D=8
M108 641 ypass[2] VDD VDD pfet_05v0 L=6e-07 W=2.97e-06 AD=9.801e-13 AS=1.83769e-12 PD=4.29e-06 PS=5.445e-06 NRD=0.444444 NRS=0.833333 m=1 nf=2 $X=24075 $Y=87735 $D=8
M109 VDD 211 213 VDD pfet_05v0 L=6e-07 W=6e-07 AD=8.52e-13 AS=2.7e-13 PD=5.32e-06 PS=2.1e-06 NRD=2.36667 NRS=0.75 m=1 nf=1 $X=26165 $Y=154595 $D=8
M110 VDD 561 560 VDD pfet_05v0 L=6e-07 W=6e-07 AD=8.52e-13 AS=2.7e-13 PD=5.32e-06 PS=2.1e-06 NRD=2.36667 NRS=0.75 m=1 nf=1 $X=26165 $Y=155875 $D=8
M111 VDD 569 568 VDD pfet_05v0 L=6e-07 W=6e-07 AD=8.52e-13 AS=2.7e-13 PD=5.32e-06 PS=2.1e-06 NRD=2.36667 NRS=0.75 m=1 nf=1 $X=26165 $Y=190595 $D=8
M112 VDD 251 253 VDD pfet_05v0 L=6e-07 W=6e-07 AD=8.52e-13 AS=2.7e-13 PD=5.32e-06 PS=2.1e-06 NRD=2.36667 NRS=0.75 m=1 nf=1 $X=26165 $Y=191875 $D=8
M113 211 213 VDD VDD pfet_05v0 L=6e-07 W=6e-07 AD=2.7e-13 AS=8.52e-13 PD=2.1e-06 PS=5.32e-06 NRD=0.75 NRS=2.36667 m=1 nf=1 $X=27305 $Y=154595 $D=8
M114 561 560 VDD VDD pfet_05v0 L=6e-07 W=6e-07 AD=2.7e-13 AS=8.52e-13 PD=2.1e-06 PS=5.32e-06 NRD=0.75 NRS=2.36667 m=1 nf=1 $X=27305 $Y=155875 $D=8
M115 569 568 VDD VDD pfet_05v0 L=6e-07 W=6e-07 AD=2.7e-13 AS=8.52e-13 PD=2.1e-06 PS=5.32e-06 NRD=0.75 NRS=2.36667 m=1 nf=1 $X=27305 $Y=190595 $D=8
M116 251 253 VDD VDD pfet_05v0 L=6e-07 W=6e-07 AD=2.7e-13 AS=8.52e-13 PD=2.1e-06 PS=5.32e-06 NRD=0.75 NRS=2.36667 m=1 nf=1 $X=27305 $Y=191875 $D=8
M117 642 ypass[1] VDD VDD pfet_05v0 L=6e-07 W=2.97e-06 AD=9.801e-13 AS=1.83769e-12 PD=4.29e-06 PS=5.445e-06 NRD=0.444444 NRS=0.833333 m=1 nf=2 $X=27740 $Y=87735 $D=8
M118 VDD 207 209 VDD pfet_05v0 L=6e-07 W=6e-07 AD=8.52e-13 AS=2.7e-13 PD=5.32e-06 PS=2.1e-06 NRD=2.36667 NRS=0.75 m=1 nf=1 $X=29165 $Y=154595 $D=8
M119 VDD 563 562 VDD pfet_05v0 L=6e-07 W=6e-07 AD=8.52e-13 AS=2.7e-13 PD=5.32e-06 PS=2.1e-06 NRD=2.36667 NRS=0.75 m=1 nf=1 $X=29165 $Y=155875 $D=8
M120 VDD 571 570 VDD pfet_05v0 L=6e-07 W=6e-07 AD=8.52e-13 AS=2.7e-13 PD=5.32e-06 PS=2.1e-06 NRD=2.36667 NRS=0.75 m=1 nf=1 $X=29165 $Y=190595 $D=8
M121 VDD 247 249 VDD pfet_05v0 L=6e-07 W=6e-07 AD=8.52e-13 AS=2.7e-13 PD=5.32e-06 PS=2.1e-06 NRD=2.36667 NRS=0.75 m=1 nf=1 $X=29165 $Y=191875 $D=8
M122 207 209 VDD VDD pfet_05v0 L=6e-07 W=6e-07 AD=2.7e-13 AS=8.52e-13 PD=2.1e-06 PS=5.32e-06 NRD=0.75 NRS=2.36667 m=1 nf=1 $X=30305 $Y=154595 $D=8
M123 563 562 VDD VDD pfet_05v0 L=6e-07 W=6e-07 AD=2.7e-13 AS=8.52e-13 PD=2.1e-06 PS=5.32e-06 NRD=0.75 NRS=2.36667 m=1 nf=1 $X=30305 $Y=155875 $D=8
M124 571 570 VDD VDD pfet_05v0 L=6e-07 W=6e-07 AD=2.7e-13 AS=8.52e-13 PD=2.1e-06 PS=5.32e-06 NRD=0.75 NRS=2.36667 m=1 nf=1 $X=30305 $Y=190595 $D=8
M125 247 249 VDD VDD pfet_05v0 L=6e-07 W=6e-07 AD=2.7e-13 AS=8.52e-13 PD=2.1e-06 PS=5.32e-06 NRD=0.75 NRS=2.36667 m=1 nf=1 $X=30305 $Y=191875 $D=8
M126 460 ypass[0] VDD VDD pfet_05v0 L=6e-07 W=2.97e-06 AD=9.72675e-13 AS=1.84882e-12 PD=4.28e-06 PS=5.46e-06 NRD=0.441077 NRS=0.838384 m=1 nf=2 $X=30270 $Y=87735 $D=8
M127 VDD 339 341 VDD pfet_05v0 L=6e-07 W=6e-07 AD=8.52e-13 AS=2.7e-13 PD=5.32e-06 PS=2.1e-06 NRD=2.36667 NRS=0.75 m=1 nf=1 $X=35165 $Y=154595 $D=8
M128 VDD 468 469 VDD pfet_05v0 L=6e-07 W=6e-07 AD=8.52e-13 AS=2.7e-13 PD=5.32e-06 PS=2.1e-06 NRD=2.36667 NRS=0.75 m=1 nf=1 $X=35165 $Y=155875 $D=8
M129 VDD 476 477 VDD pfet_05v0 L=6e-07 W=6e-07 AD=8.52e-13 AS=2.7e-13 PD=5.32e-06 PS=2.1e-06 NRD=2.36667 NRS=0.75 m=1 nf=1 $X=35165 $Y=190595 $D=8
M130 VDD 355 357 VDD pfet_05v0 L=6e-07 W=6e-07 AD=8.52e-13 AS=2.7e-13 PD=5.32e-06 PS=2.1e-06 NRD=2.36667 NRS=0.75 m=1 nf=1 $X=35165 $Y=191875 $D=8
M131 458 ypass[7] VDD VDD pfet_05v0 L=6e-07 W=2.97e-06 AD=9.72675e-13 AS=1.84882e-12 PD=4.28e-06 PS=5.46e-06 NRD=0.441077 NRS=0.838384 m=1 nf=2 $X=33945 $Y=87735 $D=8
M132 339 341 VDD VDD pfet_05v0 L=6e-07 W=6e-07 AD=2.7e-13 AS=8.52e-13 PD=2.1e-06 PS=5.32e-06 NRD=0.75 NRS=2.36667 m=1 nf=1 $X=36305 $Y=154595 $D=8
M133 468 469 VDD VDD pfet_05v0 L=6e-07 W=6e-07 AD=2.7e-13 AS=8.52e-13 PD=2.1e-06 PS=5.32e-06 NRD=0.75 NRS=2.36667 m=1 nf=1 $X=36305 $Y=155875 $D=8
M134 476 477 VDD VDD pfet_05v0 L=6e-07 W=6e-07 AD=2.7e-13 AS=8.52e-13 PD=2.1e-06 PS=5.32e-06 NRD=0.75 NRS=2.36667 m=1 nf=1 $X=36305 $Y=190595 $D=8
M135 355 357 VDD VDD pfet_05v0 L=6e-07 W=6e-07 AD=2.7e-13 AS=8.52e-13 PD=2.1e-06 PS=5.32e-06 NRD=0.75 NRS=2.36667 m=1 nf=1 $X=36305 $Y=191875 $D=8
M136 532 ypass[6] VDD VDD pfet_05v0 L=6e-07 W=2.97e-06 AD=9.801e-13 AS=1.83769e-12 PD=4.29e-06 PS=5.445e-06 NRD=0.444444 NRS=0.833333 m=1 nf=2 $X=36470 $Y=87735 $D=8
M137 VDD 335 337 VDD pfet_05v0 L=6e-07 W=6e-07 AD=8.52e-13 AS=2.7e-13 PD=5.32e-06 PS=2.1e-06 NRD=2.36667 NRS=0.75 m=1 nf=1 $X=38165 $Y=154595 $D=8
M138 VDD 466 467 VDD pfet_05v0 L=6e-07 W=6e-07 AD=8.52e-13 AS=2.7e-13 PD=5.32e-06 PS=2.1e-06 NRD=2.36667 NRS=0.75 m=1 nf=1 $X=38165 $Y=155875 $D=8
M139 VDD 474 475 VDD pfet_05v0 L=6e-07 W=6e-07 AD=8.52e-13 AS=2.7e-13 PD=5.32e-06 PS=2.1e-06 NRD=2.36667 NRS=0.75 m=1 nf=1 $X=38165 $Y=190595 $D=8
M140 VDD 351 353 VDD pfet_05v0 L=6e-07 W=6e-07 AD=8.52e-13 AS=2.7e-13 PD=5.32e-06 PS=2.1e-06 NRD=2.36667 NRS=0.75 m=1 nf=1 $X=38165 $Y=191875 $D=8
M141 335 337 VDD VDD pfet_05v0 L=6e-07 W=6e-07 AD=2.7e-13 AS=8.52e-13 PD=2.1e-06 PS=5.32e-06 NRD=0.75 NRS=2.36667 m=1 nf=1 $X=39305 $Y=154595 $D=8
M142 466 467 VDD VDD pfet_05v0 L=6e-07 W=6e-07 AD=2.7e-13 AS=8.52e-13 PD=2.1e-06 PS=5.32e-06 NRD=0.75 NRS=2.36667 m=1 nf=1 $X=39305 $Y=155875 $D=8
M143 474 475 VDD VDD pfet_05v0 L=6e-07 W=6e-07 AD=2.7e-13 AS=8.52e-13 PD=2.1e-06 PS=5.32e-06 NRD=0.75 NRS=2.36667 m=1 nf=1 $X=39305 $Y=190595 $D=8
M144 351 353 VDD VDD pfet_05v0 L=6e-07 W=6e-07 AD=2.7e-13 AS=8.52e-13 PD=2.1e-06 PS=5.32e-06 NRD=0.75 NRS=2.36667 m=1 nf=1 $X=39305 $Y=191875 $D=8
M145 VDD 331 333 VDD pfet_05v0 L=6e-07 W=6e-07 AD=8.52e-13 AS=2.7e-13 PD=5.32e-06 PS=2.1e-06 NRD=2.36667 NRS=0.75 m=1 nf=1 $X=41165 $Y=154595 $D=8
M146 VDD 464 465 VDD pfet_05v0 L=6e-07 W=6e-07 AD=8.52e-13 AS=2.7e-13 PD=5.32e-06 PS=2.1e-06 NRD=2.36667 NRS=0.75 m=1 nf=1 $X=41165 $Y=155875 $D=8
M147 VDD 472 473 VDD pfet_05v0 L=6e-07 W=6e-07 AD=8.52e-13 AS=2.7e-13 PD=5.32e-06 PS=2.1e-06 NRD=2.36667 NRS=0.75 m=1 nf=1 $X=41165 $Y=190595 $D=8
M148 VDD 347 349 VDD pfet_05v0 L=6e-07 W=6e-07 AD=8.52e-13 AS=2.7e-13 PD=5.32e-06 PS=2.1e-06 NRD=2.36667 NRS=0.75 m=1 nf=1 $X=41165 $Y=191875 $D=8
M149 531 ypass[5] VDD VDD pfet_05v0 L=6e-07 W=2.97e-06 AD=9.801e-13 AS=1.83769e-12 PD=4.29e-06 PS=5.445e-06 NRD=0.444444 NRS=0.833333 m=1 nf=2 $X=40135 $Y=87735 $D=8
M150 331 333 VDD VDD pfet_05v0 L=6e-07 W=6e-07 AD=2.7e-13 AS=8.52e-13 PD=2.1e-06 PS=5.32e-06 NRD=0.75 NRS=2.36667 m=1 nf=1 $X=42305 $Y=154595 $D=8
M151 464 465 VDD VDD pfet_05v0 L=6e-07 W=6e-07 AD=2.7e-13 AS=8.52e-13 PD=2.1e-06 PS=5.32e-06 NRD=0.75 NRS=2.36667 m=1 nf=1 $X=42305 $Y=155875 $D=8
M152 472 473 VDD VDD pfet_05v0 L=6e-07 W=6e-07 AD=2.7e-13 AS=8.52e-13 PD=2.1e-06 PS=5.32e-06 NRD=0.75 NRS=2.36667 m=1 nf=1 $X=42305 $Y=190595 $D=8
M153 347 349 VDD VDD pfet_05v0 L=6e-07 W=6e-07 AD=2.7e-13 AS=8.52e-13 PD=2.1e-06 PS=5.32e-06 NRD=0.75 NRS=2.36667 m=1 nf=1 $X=42305 $Y=191875 $D=8
M154 530 ypass[4] VDD VDD pfet_05v0 L=6e-07 W=2.97e-06 AD=9.801e-13 AS=1.83397e-12 PD=4.29e-06 PS=5.44e-06 NRD=0.444444 NRS=0.83165 m=1 nf=2 $X=42665 $Y=87735 $D=8
M155 VDD 327 329 VDD pfet_05v0 L=6e-07 W=6e-07 AD=8.52e-13 AS=2.7e-13 PD=5.32e-06 PS=2.1e-06 NRD=2.36667 NRS=0.75 m=1 nf=1 $X=44165 $Y=154595 $D=8
M156 VDD 462 463 VDD pfet_05v0 L=6e-07 W=6e-07 AD=8.52e-13 AS=2.7e-13 PD=5.32e-06 PS=2.1e-06 NRD=2.36667 NRS=0.75 m=1 nf=1 $X=44165 $Y=155875 $D=8
M157 VDD 470 471 VDD pfet_05v0 L=6e-07 W=6e-07 AD=8.52e-13 AS=2.7e-13 PD=5.32e-06 PS=2.1e-06 NRD=2.36667 NRS=0.75 m=1 nf=1 $X=44165 $Y=190595 $D=8
M158 VDD 343 345 VDD pfet_05v0 L=6e-07 W=6e-07 AD=8.52e-13 AS=2.7e-13 PD=5.32e-06 PS=2.1e-06 NRD=2.36667 NRS=0.75 m=1 nf=1 $X=44165 $Y=191875 $D=8
M159 327 329 VDD VDD pfet_05v0 L=6e-07 W=6e-07 AD=2.7e-13 AS=8.52e-13 PD=2.1e-06 PS=5.32e-06 NRD=0.75 NRS=2.36667 m=1 nf=1 $X=45305 $Y=154595 $D=8
M160 462 463 VDD VDD pfet_05v0 L=6e-07 W=6e-07 AD=2.7e-13 AS=8.52e-13 PD=2.1e-06 PS=5.32e-06 NRD=0.75 NRS=2.36667 m=1 nf=1 $X=45305 $Y=155875 $D=8
M161 470 471 VDD VDD pfet_05v0 L=6e-07 W=6e-07 AD=2.7e-13 AS=8.52e-13 PD=2.1e-06 PS=5.32e-06 NRD=0.75 NRS=2.36667 m=1 nf=1 $X=45305 $Y=190595 $D=8
M162 343 345 VDD VDD pfet_05v0 L=6e-07 W=6e-07 AD=2.7e-13 AS=8.52e-13 PD=2.1e-06 PS=5.32e-06 NRD=0.75 NRS=2.36667 m=1 nf=1 $X=45305 $Y=191875 $D=8
M163 VDD 275 277 VDD pfet_05v0 L=6e-07 W=6e-07 AD=8.52e-13 AS=2.7e-13 PD=5.32e-06 PS=2.1e-06 NRD=2.36667 NRS=0.75 m=1 nf=1 $X=47165 $Y=154595 $D=8
M164 VDD 484 485 VDD pfet_05v0 L=6e-07 W=6e-07 AD=8.52e-13 AS=2.7e-13 PD=5.32e-06 PS=2.1e-06 NRD=2.36667 NRS=0.75 m=1 nf=1 $X=47165 $Y=155875 $D=8
M165 VDD 492 493 VDD pfet_05v0 L=6e-07 W=6e-07 AD=8.52e-13 AS=2.7e-13 PD=5.32e-06 PS=2.1e-06 NRD=2.36667 NRS=0.75 m=1 nf=1 $X=47165 $Y=190595 $D=8
M166 VDD 291 293 VDD pfet_05v0 L=6e-07 W=6e-07 AD=8.52e-13 AS=2.7e-13 PD=5.32e-06 PS=2.1e-06 NRD=2.36667 NRS=0.75 m=1 nf=1 $X=47165 $Y=191875 $D=8
M167 529 ypass[3] VDD VDD pfet_05v0 L=6e-07 W=2.97e-06 AD=9.801e-13 AS=1.83397e-12 PD=4.29e-06 PS=5.44e-06 NRD=0.444444 NRS=0.83165 m=1 nf=2 $X=46325 $Y=87735 $D=8
M168 275 277 VDD VDD pfet_05v0 L=6e-07 W=6e-07 AD=2.7e-13 AS=8.52e-13 PD=2.1e-06 PS=5.32e-06 NRD=0.75 NRS=2.36667 m=1 nf=1 $X=48305 $Y=154595 $D=8
M169 484 485 VDD VDD pfet_05v0 L=6e-07 W=6e-07 AD=2.7e-13 AS=8.52e-13 PD=2.1e-06 PS=5.32e-06 NRD=0.75 NRS=2.36667 m=1 nf=1 $X=48305 $Y=155875 $D=8
M170 492 493 VDD VDD pfet_05v0 L=6e-07 W=6e-07 AD=2.7e-13 AS=8.52e-13 PD=2.1e-06 PS=5.32e-06 NRD=0.75 NRS=2.36667 m=1 nf=1 $X=48305 $Y=190595 $D=8
M171 291 293 VDD VDD pfet_05v0 L=6e-07 W=6e-07 AD=2.7e-13 AS=8.52e-13 PD=2.1e-06 PS=5.32e-06 NRD=0.75 NRS=2.36667 m=1 nf=1 $X=48305 $Y=191875 $D=8
M172 528 ypass[2] VDD VDD pfet_05v0 L=6e-07 W=2.97e-06 AD=9.801e-13 AS=1.83769e-12 PD=4.29e-06 PS=5.445e-06 NRD=0.444444 NRS=0.833333 m=1 nf=2 $X=48855 $Y=87735 $D=8
M173 VDD 271 273 VDD pfet_05v0 L=6e-07 W=6e-07 AD=8.52e-13 AS=2.7e-13 PD=5.32e-06 PS=2.1e-06 NRD=2.36667 NRS=0.75 m=1 nf=1 $X=50165 $Y=154595 $D=8
M174 VDD 482 483 VDD pfet_05v0 L=6e-07 W=6e-07 AD=8.52e-13 AS=2.7e-13 PD=5.32e-06 PS=2.1e-06 NRD=2.36667 NRS=0.75 m=1 nf=1 $X=50165 $Y=155875 $D=8
M175 VDD 490 491 VDD pfet_05v0 L=6e-07 W=6e-07 AD=8.52e-13 AS=2.7e-13 PD=5.32e-06 PS=2.1e-06 NRD=2.36667 NRS=0.75 m=1 nf=1 $X=50165 $Y=190595 $D=8
M176 VDD 287 289 VDD pfet_05v0 L=6e-07 W=6e-07 AD=8.52e-13 AS=2.7e-13 PD=5.32e-06 PS=2.1e-06 NRD=2.36667 NRS=0.75 m=1 nf=1 $X=50165 $Y=191875 $D=8
M177 271 273 VDD VDD pfet_05v0 L=6e-07 W=6e-07 AD=2.7e-13 AS=8.52e-13 PD=2.1e-06 PS=5.32e-06 NRD=0.75 NRS=2.36667 m=1 nf=1 $X=51305 $Y=154595 $D=8
M178 482 483 VDD VDD pfet_05v0 L=6e-07 W=6e-07 AD=2.7e-13 AS=8.52e-13 PD=2.1e-06 PS=5.32e-06 NRD=0.75 NRS=2.36667 m=1 nf=1 $X=51305 $Y=155875 $D=8
M179 490 491 VDD VDD pfet_05v0 L=6e-07 W=6e-07 AD=2.7e-13 AS=8.52e-13 PD=2.1e-06 PS=5.32e-06 NRD=0.75 NRS=2.36667 m=1 nf=1 $X=51305 $Y=190595 $D=8
M180 287 289 VDD VDD pfet_05v0 L=6e-07 W=6e-07 AD=2.7e-13 AS=8.52e-13 PD=2.1e-06 PS=5.32e-06 NRD=0.75 NRS=2.36667 m=1 nf=1 $X=51305 $Y=191875 $D=8
M181 VDD 267 269 VDD pfet_05v0 L=6e-07 W=6e-07 AD=8.52e-13 AS=2.7e-13 PD=5.32e-06 PS=2.1e-06 NRD=2.36667 NRS=0.75 m=1 nf=1 $X=53165 $Y=154595 $D=8
M182 VDD 480 481 VDD pfet_05v0 L=6e-07 W=6e-07 AD=8.52e-13 AS=2.7e-13 PD=5.32e-06 PS=2.1e-06 NRD=2.36667 NRS=0.75 m=1 nf=1 $X=53165 $Y=155875 $D=8
M183 VDD 488 489 VDD pfet_05v0 L=6e-07 W=6e-07 AD=8.52e-13 AS=2.7e-13 PD=5.32e-06 PS=2.1e-06 NRD=2.36667 NRS=0.75 m=1 nf=1 $X=53165 $Y=190595 $D=8
M184 VDD 283 285 VDD pfet_05v0 L=6e-07 W=6e-07 AD=8.52e-13 AS=2.7e-13 PD=5.32e-06 PS=2.1e-06 NRD=2.36667 NRS=0.75 m=1 nf=1 $X=53165 $Y=191875 $D=8
M185 527 ypass[1] VDD VDD pfet_05v0 L=6e-07 W=2.97e-06 AD=9.801e-13 AS=1.83769e-12 PD=4.29e-06 PS=5.445e-06 NRD=0.444444 NRS=0.833333 m=1 nf=2 $X=52520 $Y=87735 $D=8
M186 267 269 VDD VDD pfet_05v0 L=6e-07 W=6e-07 AD=2.7e-13 AS=8.52e-13 PD=2.1e-06 PS=5.32e-06 NRD=0.75 NRS=2.36667 m=1 nf=1 $X=54305 $Y=154595 $D=8
M187 480 481 VDD VDD pfet_05v0 L=6e-07 W=6e-07 AD=2.7e-13 AS=8.52e-13 PD=2.1e-06 PS=5.32e-06 NRD=0.75 NRS=2.36667 m=1 nf=1 $X=54305 $Y=155875 $D=8
M188 488 489 VDD VDD pfet_05v0 L=6e-07 W=6e-07 AD=2.7e-13 AS=8.52e-13 PD=2.1e-06 PS=5.32e-06 NRD=0.75 NRS=2.36667 m=1 nf=1 $X=54305 $Y=190595 $D=8
M189 283 285 VDD VDD pfet_05v0 L=6e-07 W=6e-07 AD=2.7e-13 AS=8.52e-13 PD=2.1e-06 PS=5.32e-06 NRD=0.75 NRS=2.36667 m=1 nf=1 $X=54305 $Y=191875 $D=8
M190 VDD 263 265 VDD pfet_05v0 L=6e-07 W=6e-07 AD=8.52e-13 AS=2.7e-13 PD=5.32e-06 PS=2.1e-06 NRD=2.36667 NRS=0.75 m=1 nf=1 $X=56165 $Y=154595 $D=8
M191 VDD 478 479 VDD pfet_05v0 L=6e-07 W=6e-07 AD=8.52e-13 AS=2.7e-13 PD=5.32e-06 PS=2.1e-06 NRD=2.36667 NRS=0.75 m=1 nf=1 $X=56165 $Y=155875 $D=8
M192 VDD 486 487 VDD pfet_05v0 L=6e-07 W=6e-07 AD=8.52e-13 AS=2.7e-13 PD=5.32e-06 PS=2.1e-06 NRD=2.36667 NRS=0.75 m=1 nf=1 $X=56165 $Y=190595 $D=8
M193 VDD 279 281 VDD pfet_05v0 L=6e-07 W=6e-07 AD=8.52e-13 AS=2.7e-13 PD=5.32e-06 PS=2.1e-06 NRD=2.36667 NRS=0.75 m=1 nf=1 $X=56165 $Y=191875 $D=8