* Subcircuit definition of cell gf180mcu_fd_ip_sram__sram256x8m8wm1
.SUBCKT gf180mcu_fd_ip_sram__sram256x8m8wm1 A[7] A[6] A[5] A[4] A[3] A[2] A[1]
+ A[0] CEN CLK D[7] D[6] D[5] D[4] D[3] D[2] D[1] D[0] GWEN Q[7] Q[6] Q[5]
+ Q[4] Q[3] Q[2] Q[1] Q[0] VDD VSS WEN[7] WEN[6] WEN[5] WEN[4] WEN[3] WEN[2]
+ WEN[1] WEN[0]
** N=5478 EP=37 IP=4140 FDC=16461
M0 4301 VSS 712 VSS nfet_05v0 L=7.7e-07 W=6e-07 AD=2.81613e-13 AS=2.82e-13 PD=1.84258e-06 PS=2.14e-06 NRD=0.782258 NRS=0.783333 m=1 nf=1 $X=120390 $Y=176390 $D=2
M1 712 VSS 4303 VSS nfet_05v0 L=7.7e-07 W=6e-07 AD=2.82e-13 AS=2.81613e-13 PD=2.14e-06 PS=1.84258e-06 NRD=0.783333 NRS=0.782258 m=1 nf=1 $X=120390 $Y=328100 $D=2
M2 VSS 4300 4301 VSS nfet_05v0 L=6e-07 W=9.5e-07 AD=1.84565e-14 AS=1.18957e-13 PD=-7.88406e-08 PS=9.41159e-07 NRD=0.0204504 NRS=0.131808 m=1 nf=1 $X=120840 $Y=177840 $D=2
M3 VSS 4302 4303 VSS nfet_05v0 L=6e-07 W=9.5e-07 AD=1.84565e-14 AS=1.18957e-13 PD=-7.88406e-08 PS=9.41159e-07 NRD=0.0204504 NRS=0.131808 m=1 nf=1 $X=120840 $Y=326470 $D=2
M4 4300 4301 VSS VSS nfet_05v0 L=6e-07 W=9.5e-07 AD=1.18957e-13 AS=1.84565e-14 PD=9.41159e-07 PS=-7.88406e-08 NRD=0.131808 NRS=0.0204504 m=1 nf=1 $X=121980 $Y=177840 $D=2
M5 4302 4303 VSS VSS nfet_05v0 L=6e-07 W=9.5e-07 AD=1.18957e-13 AS=1.84565e-14 PD=9.41159e-07 PS=-7.88406e-08 NRD=0.131808 NRS=0.0204504 m=1 nf=1 $X=121980 $Y=326470 $D=2
M6 4300 VSS 711 VSS nfet_05v0 L=7.7e-07 W=6e-07 AD=2.81613e-13 AS=2.82e-13 PD=1.84258e-06 PS=2.14e-06 NRD=0.782258 NRS=0.783333 m=1 nf=1 $X=122430 $Y=176390 $D=2
M7 711 VSS 4302 VSS nfet_05v0 L=7.7e-07 W=6e-07 AD=2.82e-13 AS=2.81613e-13 PD=2.14e-06 PS=1.84258e-06 NRD=0.783333 NRS=0.782258 m=1 nf=1 $X=122430 $Y=328100 $D=2
M8 2 VDD 1 VSS nfet_05v0 L=6e-07 W=6.59e-06 AD=2.8996e-12 AS=2.8996e-12 PD=1.406e-05 PS=1.406e-05 NRD=0.0667678 NRS=0.0667678 m=1 nf=1 $X=204815 $Y=327000 $D=2
M9 VSS 1 802 VSS nfet_05v0 L=6e-07 W=1.36e-06 AD=3.536e-13 AS=5.984e-13 PD=1.88e-06 PS=3.6e-06 NRD=0.191176 NRS=0.323529 m=1 nf=1 $X=233770 $Y=54135 $D=2
M10 802 CLK VSS VSS nfet_05v0 L=6e-07 W=1.36e-06 AD=5.984e-13 AS=3.536e-13 PD=3.6e-06 PS=1.88e-06 NRD=0.323529 NRS=0.191176 m=1 nf=1 $X=234890 $Y=54135 $D=2
M11 616 619 VSS VSS nfet_05v0 L=6e-07 W=4.54e-06 AD=1.1804e-12 AS=1.9976e-12 PD=5.58e-06 PS=1.084e-05 NRD=0.229075 NRS=0.387665 m=1 nf=2 $X=242235 $Y=54135 $D=2
M12 281 808 VSS VSS nfet_05v0 L=1e-06 W=6e-07 AD=2.64e-13 AS=2.64e-13 PD=2.08e-06 PS=2.08e-06 NRD=0.733333 NRS=0.733333 m=1 nf=1 $X=243265 $Y=46010 $D=2
M13 CEN 802 619 VSS nfet_05v0 L=6e-07 W=2.27e-06 AD=9.988e-13 AS=9.988e-13 PD=5.42e-06 PS=5.42e-06 NRD=0.193833 NRS=0.193833 m=1 nf=1 $X=245925 $Y=54135 $D=2
M14 250 468 VSS VSS nfet_05v0 L=6e-07 W=4.99e-05 AD=1.47704e-11 AS=1.47704e-11 PD=6.284e-05 PS=6.284e-05 NRD=0.148297 NRS=0.148297 m=1 nf=5 $X=241995 $Y=72320 $D=2
M15 317 281 VSS VSS nfet_05v0 L=6e-07 W=7.5e-07 AD=3.3e-13 AS=3.3e-13 PD=2.38e-06 PS=2.38e-06 NRD=0.586667 NRS=0.586667 m=1 nf=1 $X=246495 $Y=46075 $D=2
M16 354 317 VSS VSS nfet_05v0 L=6e-07 W=3.02e-06 AD=1.3288e-12 AS=1.3288e-12 PD=6.92e-06 PS=6.92e-06 NRD=0.145695 NRS=0.145695 m=1 nf=1 $X=249065 $Y=46070 $D=2
M17 4728 354 VSS VSS nfet_05v0 L=6e-07 W=2.268e-05 AD=5.8968e-12 AS=1.34946e-11 PD=2.32e-05 PS=4.655e-05 NRD=0.0114638 NRS=0.0262346 m=1 nf=1 $X=256125 $Y=28435 $D=2
M18 4729 CLK 4728 VSS nfet_05v0 L=6e-07 W=2.268e-05 AD=0 AS=0 PD=0 PS=0 NRD=0 NRS=0 m=1 nf=1 $X=257245 $Y=28435 $D=2
M19 445 616 4729 VSS nfet_05v0 L=6e-07 W=2.268e-05 AD=1.33812e-11 AS=5.8968e-12 PD=4.654e-05 PS=2.32e-05 NRD=0.0260141 NRS=0.0114638 m=1 nf=1 $X=258365 $Y=28435 $D=2
M20 4730 495 VSS VSS nfet_05v0 L=6e-07 W=1.8145e-05 AD=4.7177e-12 AS=1.07963e-11 PD=1.8665e-05 PS=3.748e-05 NRD=0.014329 NRS=0.0327914 m=1 nf=1 $X=262120 $Y=29545 $D=2
M21 468 445 4730 VSS nfet_05v0 L=6e-07 W=1.8145e-05 AD=0 AS=0 PD=0 PS=0 NRD=0 NRS=0 m=1 nf=1 $X=263240 $Y=29545 $D=2
M22 4731 445 468 VSS nfet_05v0 L=6e-07 W=1.8145e-05 AD=0 AS=0 PD=0 PS=0 NRD=0 NRS=0 m=1 nf=1 $X=264360 $Y=29545 $D=2
M23 VSS 495 4731 VSS nfet_05v0 L=6e-07 W=1.8145e-05 AD=1.07055e-11 AS=4.7177e-12 PD=3.747e-05 PS=1.8665e-05 NRD=0.0325158 NRS=0.014329 m=1 nf=1 $X=265480 $Y=29545 $D=2
M24 4732 468 VSS VSS nfet_05v0 L=6e-07 W=4.54e-06 AD=1.16905e-12 AS=2.7013e-12 PD=5.055e-06 PS=1.027e-05 NRD=0.0567181 NRS=0.131057 m=1 nf=1 $X=268545 $Y=43150 $D=2
M25 495 607 4732 VSS nfet_05v0 L=6e-07 W=4.54e-06 AD=2.27e-14 AS=-2.27e-14 PD=1e-08 PS=-1e-08 NRD=0.00110132 NRS=-0.00110132 m=1 nf=1 $X=269660 $Y=43150 $D=2
M26 4733 607 495 VSS nfet_05v0 L=6e-07 W=4.54e-06 AD=-2.27e-14 AS=2.27e-14 PD=-1e-08 PS=1e-08 NRD=-0.00110132 NRS=0.00110132 m=1 nf=1 $X=270785 $Y=43150 $D=2
M27 VSS 468 4733 VSS nfet_05v0 L=6e-07 W=4.54e-06 AD=2.7013e-12 AS=1.16905e-12 PD=1.027e-05 PS=5.055e-06 NRD=0.131057 NRS=0.0567181 m=1 nf=1 $X=271900 $Y=43150 $D=2
M28 1 250 VSS VSS nfet_05v0 L=6e-07 W=0.0001474 AD=3.8324e-11 AS=4.09772e-11 PD=0.0001578 PS=0.00017326 NRD=0.705563 NRS=0.75441 m=1 nf=20 $X=253180 $Y=76320 $D=2
M29 4305 VSS 714 VSS nfet_05v0 L=7.7e-07 W=6e-07 AD=2.81613e-13 AS=2.82e-13 PD=1.84258e-06 PS=2.14e-06 NRD=0.782258 NRS=0.783333 m=1 nf=1 $X=304270 $Y=176390 $D=2
M30 714 VSS 4307 VSS nfet_05v0 L=7.7e-07 W=6e-07 AD=2.82e-13 AS=2.81613e-13 PD=2.14e-06 PS=1.84258e-06 NRD=0.783333 NRS=0.782258 m=1 nf=1 $X=304270 $Y=328100 $D=2
M31 VSS 4304 4305 VSS nfet_05v0 L=6e-07 W=9.5e-07 AD=1.84565e-14 AS=1.18957e-13 PD=-7.88406e-08 PS=9.41159e-07 NRD=0.0204504 NRS=0.131808 m=1 nf=1 $X=304720 $Y=177840 $D=2
M32 VSS 4306 4307 VSS nfet_05v0 L=6e-07 W=9.5e-07 AD=1.84565e-14 AS=1.18957e-13 PD=-7.88406e-08 PS=9.41159e-07 NRD=0.0204504 NRS=0.131808 m=1 nf=1 $X=304720 $Y=326470 $D=2
M33 4304 4305 VSS VSS nfet_05v0 L=6e-07 W=9.5e-07 AD=1.18957e-13 AS=1.84565e-14 PD=9.41159e-07 PS=-7.88406e-08 NRD=0.131808 NRS=0.0204504 m=1 nf=1 $X=305860 $Y=177840 $D=2
M34 4306 4307 VSS VSS nfet_05v0 L=6e-07 W=9.5e-07 AD=1.18957e-13 AS=1.84565e-14 PD=9.41159e-07 PS=-7.88406e-08 NRD=0.131808 NRS=0.0204504 m=1 nf=1 $X=305860 $Y=326470 $D=2
M35 4304 VSS 713 VSS nfet_05v0 L=7.7e-07 W=6e-07 AD=2.81613e-13 AS=2.82e-13 PD=1.84258e-06 PS=2.14e-06 NRD=0.782258 NRS=0.783333 m=1 nf=1 $X=306310 $Y=176390 $D=2
M36 713 VSS 4306 VSS nfet_05v0 L=7.7e-07 W=6e-07 AD=2.82e-13 AS=2.81613e-13 PD=2.14e-06 PS=1.84258e-06 NRD=0.783333 NRS=0.782258 m=1 nf=1 $X=306310 $Y=328100 $D=2
M37 4747 VSS 614 VSS nfet_05v0 L=7.7e-07 W=6e-07 AD=2.81613e-13 AS=2.82e-13 PD=1.84258e-06 PS=2.14e-06 NRD=0.782258 NRS=0.783333 m=1 nf=1 $X=418270 $Y=176390 $D=2
M38 614 VSS 4749 VSS nfet_05v0 L=7.7e-07 W=6e-07 AD=-2.739e-13 AS=1.416e-13 PD=-1.70545e-06 PS=8.14545e-07 NRD=-0.760833 NRS=0.393333 m=1 nf=1 $X=418270 $Y=193100 $D=2
M39 4751 VSS 614 VSS nfet_05v0 L=7.7e-07 W=6e-07 AD=1.416e-13 AS=-2.739e-13 PD=8.14545e-07 PS=-1.70545e-06 NRD=0.393333 NRS=-0.760833 m=1 nf=1 $X=418270 $Y=194390 $D=2
M40 614 VSS 4753 VSS nfet_05v0 L=7.7e-07 W=6e-07 AD=-2.739e-13 AS=1.416e-13 PD=-1.70545e-06 PS=8.14545e-07 NRD=-0.760833 NRS=0.393333 m=1 nf=1 $X=418270 $Y=211100 $D=2
M41 4755 VSS 614 VSS nfet_05v0 L=7.7e-07 W=6e-07 AD=1.416e-13 AS=-2.739e-13 PD=8.14545e-07 PS=-1.70545e-06 NRD=0.393333 NRS=-0.760833 m=1 nf=1 $X=418270 $Y=212390 $D=2
M42 614 VSS 4757 VSS nfet_05v0 L=7.7e-07 W=6e-07 AD=-2.739e-13 AS=1.416e-13 PD=-1.70545e-06 PS=8.14545e-07 NRD=-0.760833 NRS=0.393333 m=1 nf=1 $X=418270 $Y=229100 $D=2
M43 4759 VSS 614 VSS nfet_05v0 L=7.7e-07 W=6e-07 AD=1.416e-13 AS=-2.739e-13 PD=8.14545e-07 PS=-1.70545e-06 NRD=0.393333 NRS=-0.760833 m=1 nf=1 $X=418270 $Y=230390 $D=2
M44 614 VSS 4761 VSS nfet_05v0 L=7.7e-07 W=6e-07 AD=-2.739e-13 AS=1.416e-13 PD=-1.70545e-06 PS=8.14545e-07 NRD=-0.760833 NRS=0.393333 m=1 nf=1 $X=418270 $Y=247100 $D=2
M45 4763 VSS 614 VSS nfet_05v0 L=7.7e-07 W=6e-07 AD=1.416e-13 AS=-2.739e-13 PD=8.14545e-07 PS=-1.70545e-06 NRD=0.393333 NRS=-0.760833 m=1 nf=1 $X=418270 $Y=248390 $D=2
M46 614 VSS 4765 VSS nfet_05v0 L=7.7e-07 W=6e-07 AD=-2.739e-13 AS=1.416e-13 PD=-1.70545e-06 PS=8.14545e-07 NRD=-0.760833 NRS=0.393333 m=1 nf=1 $X=418270 $Y=265100 $D=2
M47 4767 VSS 614 VSS nfet_05v0 L=7.7e-07 W=6e-07 AD=1.416e-13 AS=-2.739e-13 PD=8.14545e-07 PS=-1.70545e-06 NRD=0.393333 NRS=-0.760833 m=1 nf=1 $X=418270 $Y=266390 $D=2
M48 614 VSS 4769 VSS nfet_05v0 L=7.7e-07 W=6e-07 AD=-2.739e-13 AS=1.416e-13 PD=-1.70545e-06 PS=8.14545e-07 NRD=-0.760833 NRS=0.393333 m=1 nf=1 $X=418270 $Y=283100 $D=2
M49 4771 VSS 614 VSS nfet_05v0 L=7.7e-07 W=6e-07 AD=1.416e-13 AS=-2.739e-13 PD=8.14545e-07 PS=-1.70545e-06 NRD=0.393333 NRS=-0.760833 m=1 nf=1 $X=418270 $Y=284390 $D=2
M50 614 VSS 4773 VSS nfet_05v0 L=7.7e-07 W=6e-07 AD=-2.739e-13 AS=1.416e-13 PD=-1.70545e-06 PS=8.14545e-07 NRD=-0.760833 NRS=0.393333 m=1 nf=1 $X=418270 $Y=301100 $D=2
M51 4775 VSS 614 VSS nfet_05v0 L=7.7e-07 W=6e-07 AD=1.416e-13 AS=-2.739e-13 PD=8.14545e-07 PS=-1.70545e-06 NRD=0.393333 NRS=-0.760833 m=1 nf=1 $X=418270 $Y=302390 $D=2
M52 614 804 4777 VSS nfet_05v0 L=7.7e-07 W=6e-07 AD=-2.739e-13 AS=1.416e-13 PD=-1.70545e-06 PS=8.14545e-07 NRD=-0.760833 NRS=0.393333 m=1 nf=1 $X=418270 $Y=319100 $D=2
M53 4743 804 614 VSS nfet_05v0 L=7.7e-07 W=6e-07 AD=1.416e-13 AS=-2.739e-13 PD=8.14545e-07 PS=-1.70545e-06 NRD=0.393333 NRS=-0.760833 m=1 nf=1 $X=418270 $Y=320390 $D=2
M54 614 804 4745 VSS nfet_05v0 L=7.7e-07 W=6e-07 AD=2.82e-13 AS=2.81613e-13 PD=2.14e-06 PS=1.84258e-06 NRD=0.783333 NRS=0.782258 m=1 nf=1 $X=418270 $Y=328100 $D=2
M55 VSS VDD 4747 VSS nfet_05v0 L=6e-07 W=9.5e-07 AD=1.84565e-14 AS=1.18957e-13 PD=-7.88406e-08 PS=9.41159e-07 NRD=0.0204504 NRS=0.131808 m=1 nf=1 $X=418720 $Y=177840 $D=2
M56 VSS VDD 4749 VSS nfet_05v0 L=6e-07 W=9.5e-07 AD=1.84565e-14 AS=1.18957e-13 PD=-7.88406e-08 PS=9.41159e-07 NRD=0.0204504 NRS=0.131808 m=1 nf=1 $X=418720 $Y=191470 $D=2
M57 VSS VDD 4751 VSS nfet_05v0 L=6e-07 W=9.5e-07 AD=1.84565e-14 AS=1.18957e-13 PD=-7.88406e-08 PS=9.41159e-07 NRD=0.0204504 NRS=0.131808 m=1 nf=1 $X=418720 $Y=195840 $D=2
M58 VSS VDD 4753 VSS nfet_05v0 L=6e-07 W=9.5e-07 AD=1.84565e-14 AS=1.18957e-13 PD=-7.88406e-08 PS=9.41159e-07 NRD=0.0204504 NRS=0.131808 m=1 nf=1 $X=418720 $Y=209470 $D=2
M59 VSS VDD 4755 VSS nfet_05v0 L=6e-07 W=9.5e-07 AD=1.84565e-14 AS=1.18957e-13 PD=-7.88406e-08 PS=9.41159e-07 NRD=0.0204504 NRS=0.131808 m=1 nf=1 $X=418720 $Y=213840 $D=2
M60 VSS VDD 4757 VSS nfet_05v0 L=6e-07 W=9.5e-07 AD=1.84565e-14 AS=1.18957e-13 PD=-7.88406e-08 PS=9.41159e-07 NRD=0.0204504 NRS=0.131808 m=1 nf=1 $X=418720 $Y=227470 $D=2
M61 VSS VDD 4759 VSS nfet_05v0 L=6e-07 W=9.5e-07 AD=1.84565e-14 AS=1.18957e-13 PD=-7.88406e-08 PS=9.41159e-07 NRD=0.0204504 NRS=0.131808 m=1 nf=1 $X=418720 $Y=231840 $D=2
M62 VSS VDD 4761 VSS nfet_05v0 L=6e-07 W=9.5e-07 AD=1.84565e-14 AS=1.18957e-13 PD=-7.88406e-08 PS=9.41159e-07 NRD=0.0204504 NRS=0.131808 m=1 nf=1 $X=418720 $Y=245470 $D=2
M63 VSS VDD 4763 VSS nfet_05v0 L=6e-07 W=9.5e-07 AD=1.84565e-14 AS=1.18957e-13 PD=-7.88406e-08 PS=9.41159e-07 NRD=0.0204504 NRS=0.131808 m=1 nf=1 $X=418720 $Y=249840 $D=2
M64 VSS VDD 4765 VSS nfet_05v0 L=6e-07 W=9.5e-07 AD=1.84565e-14 AS=1.18957e-13 PD=-7.88406e-08 PS=9.41159e-07 NRD=0.0204504 NRS=0.131808 m=1 nf=1 $X=418720 $Y=263470 $D=2
M65 VSS VDD 4767 VSS nfet_05v0 L=6e-07 W=9.5e-07 AD=1.84565e-14 AS=1.18957e-13 PD=-7.88406e-08 PS=9.41159e-07 NRD=0.0204504 NRS=0.131808 m=1 nf=1 $X=418720 $Y=267840 $D=2
M66 VSS VDD 4769 VSS nfet_05v0 L=6e-07 W=9.5e-07 AD=1.84565e-14 AS=1.18957e-13 PD=-7.88406e-08 PS=9.41159e-07 NRD=0.0204504 NRS=0.131808 m=1 nf=1 $X=418720 $Y=281470 $D=2
M67 VSS VDD 4771 VSS nfet_05v0 L=6e-07 W=9.5e-07 AD=1.84565e-14 AS=1.18957e-13 PD=-7.88406e-08 PS=9.41159e-07 NRD=0.0204504 NRS=0.131808 m=1 nf=1 $X=418720 $Y=285840 $D=2
M68 VSS VDD 4773 VSS nfet_05v0 L=6e-07 W=9.5e-07 AD=1.84565e-14 AS=1.18957e-13 PD=-7.88406e-08 PS=9.41159e-07 NRD=0.0204504 NRS=0.131808 m=1 nf=1 $X=418720 $Y=299470 $D=2
M69 VSS VDD 4775 VSS nfet_05v0 L=6e-07 W=9.5e-07 AD=1.84565e-14 AS=1.18957e-13 PD=-7.88406e-08 PS=9.41159e-07 NRD=0.0204504 NRS=0.131808 m=1 nf=1 $X=418720 $Y=303840 $D=2
M70 VSS VDD 4777 VSS nfet_05v0 L=6e-07 W=9.5e-07 AD=1.84565e-14 AS=1.18957e-13 PD=-7.88406e-08 PS=9.41159e-07 NRD=0.0204504 NRS=0.131808 m=1 nf=1 $X=418720 $Y=317470 $D=2
M71 VSS VDD 4743 VSS nfet_05v0 L=6e-07 W=9.5e-07 AD=1.84565e-14 AS=1.18957e-13 PD=-7.88406e-08 PS=9.41159e-07 NRD=0.0204504 NRS=0.131808 m=1 nf=1 $X=418720 $Y=321840 $D=2
M72 VSS VDD 4745 VSS nfet_05v0 L=6e-07 W=9.5e-07 AD=1.84565e-14 AS=1.18957e-13 PD=-7.88406e-08 PS=9.41159e-07 NRD=0.0204504 NRS=0.131808 m=1 nf=1 $X=418720 $Y=326470 $D=2
M73 4748 VSS VSS VSS nfet_05v0 L=6e-07 W=9.5e-07 AD=1.18957e-13 AS=1.84565e-14 PD=9.41159e-07 PS=-7.88406e-08 NRD=0.131808 NRS=0.0204504 m=1 nf=1 $X=419860 $Y=177840 $D=2
M74 4750 VSS VSS VSS nfet_05v0 L=6e-07 W=9.5e-07 AD=1.18957e-13 AS=1.84565e-14 PD=9.41159e-07 PS=-7.88406e-08 NRD=0.131808 NRS=0.0204504 m=1 nf=1 $X=419860 $Y=191470 $D=2
M75 4752 VSS VSS VSS nfet_05v0 L=6e-07 W=9.5e-07 AD=1.18957e-13 AS=1.84565e-14 PD=9.41159e-07 PS=-7.88406e-08 NRD=0.131808 NRS=0.0204504 m=1 nf=1 $X=419860 $Y=195840 $D=2
M76 4754 VSS VSS VSS nfet_05v0 L=6e-07 W=9.5e-07 AD=1.18957e-13 AS=1.84565e-14 PD=9.41159e-07 PS=-7.88406e-08 NRD=0.131808 NRS=0.0204504 m=1 nf=1 $X=419860 $Y=209470 $D=2
M77 4756 VSS VSS VSS nfet_05v0 L=6e-07 W=9.5e-07 AD=1.18957e-13 AS=1.84565e-14 PD=9.41159e-07 PS=-7.88406e-08 NRD=0.131808 NRS=0.0204504 m=1 nf=1 $X=419860 $Y=213840 $D=2
M78 4758 VSS VSS VSS nfet_05v0 L=6e-07 W=9.5e-07 AD=1.18957e-13 AS=1.84565e-14 PD=9.41159e-07 PS=-7.88406e-08 NRD=0.131808 NRS=0.0204504 m=1 nf=1 $X=419860 $Y=227470 $D=2
M79 4760 VSS VSS VSS nfet_05v0 L=6e-07 W=9.5e-07 AD=1.18957e-13 AS=1.84565e-14 PD=9.41159e-07 PS=-7.88406e-08 NRD=0.131808 NRS=0.0204504 m=1 nf=1 $X=419860 $Y=231840 $D=2
M80 4762 VSS VSS VSS nfet_05v0 L=6e-07 W=9.5e-07 AD=1.18957e-13 AS=1.84565e-14 PD=9.41159e-07 PS=-7.88406e-08 NRD=0.131808 NRS=0.0204504 m=1 nf=1 $X=419860 $Y=245470 $D=2
M81 4764 VSS VSS VSS nfet_05v0 L=6e-07 W=9.5e-07 AD=1.18957e-13 AS=1.84565e-14 PD=9.41159e-07 PS=-7.88406e-08 NRD=0.131808 NRS=0.0204504 m=1 nf=1 $X=419860 $Y=249840 $D=2
M82 4766 VSS VSS VSS nfet_05v0 L=6e-07 W=9.5e-07 AD=1.18957e-13 AS=1.84565e-14 PD=9.41159e-07 PS=-7.88406e-08 NRD=0.131808 NRS=0.0204504 m=1 nf=1 $X=419860 $Y=263470 $D=2
M83 4768 VSS VSS VSS nfet_05v0 L=6e-07 W=9.5e-07 AD=1.18957e-13 AS=1.84565e-14 PD=9.41159e-07 PS=-7.88406e-08 NRD=0.131808 NRS=0.0204504 m=1 nf=1 $X=419860 $Y=267840 $D=2
M84 4770 VSS VSS VSS nfet_05v0 L=6e-07 W=9.5e-07 AD=1.18957e-13 AS=1.84565e-14 PD=9.41159e-07 PS=-7.88406e-08 NRD=0.131808 NRS=0.0204504 m=1 nf=1 $X=419860 $Y=281470 $D=2
M85 4772 VSS VSS VSS nfet_05v0 L=6e-07 W=9.5e-07 AD=1.18957e-13 AS=1.84565e-14 PD=9.41159e-07 PS=-7.88406e-08 NRD=0.131808 NRS=0.0204504 m=1 nf=1 $X=419860 $Y=285840 $D=2
M86 4774 VSS VSS VSS nfet_05v0 L=6e-07 W=9.5e-07 AD=1.18957e-13 AS=1.84565e-14 PD=9.41159e-07 PS=-7.88406e-08 NRD=0.131808 NRS=0.0204504 m=1 nf=1 $X=419860 $Y=299470 $D=2
M87 4776 VSS VSS VSS nfet_05v0 L=6e-07 W=9.5e-07 AD=1.18957e-13 AS=1.84565e-14 PD=9.41159e-07 PS=-7.88406e-08 NRD=0.131808 NRS=0.0204504 m=1 nf=1 $X=419860 $Y=303840 $D=2
M88 4778 VSS VSS VSS nfet_05v0 L=6e-07 W=9.5e-07 AD=1.18957e-13 AS=1.84565e-14 PD=9.41159e-07 PS=-7.88406e-08 NRD=0.131808 NRS=0.0204504 m=1 nf=1 $X=419860 $Y=317470 $D=2
M89 4744 VSS VSS VSS nfet_05v0 L=6e-07 W=9.5e-07 AD=1.18957e-13 AS=1.84565e-14 PD=9.41159e-07 PS=-7.88406e-08 NRD=0.131808 NRS=0.0204504 m=1 nf=1 $X=419860 $Y=321840 $D=2
M90 4746 VSS VSS VSS nfet_05v0 L=6e-07 W=9.5e-07 AD=1.18957e-13 AS=1.84565e-14 PD=9.41159e-07 PS=-7.88406e-08 NRD=0.131808 NRS=0.0204504 m=1 nf=1 $X=419860 $Y=326470 $D=2
M91 606 614 VSS VSS nfet_05v0 L=6e-07 W=2.76e-06 AD=7.176e-13 AS=1.2144e-12 PD=3.8e-06 PS=7.28e-06 NRD=0.376812 NRS=0.637681 m=1 nf=2 $X=418770 $Y=94540 $D=2
M92 607 606 VSS VSS nfet_05v0 L=6e-07 W=1.7e-05 AD=4.42e-12 AS=7.48e-12 PD=1.804e-05 PS=3.576e-05 NRD=0.0611765 NRS=0.103529 m=1 nf=2 $X=418790 $Y=79115 $D=2
M93 613 VDD VSS VSS nfet_05v0 L=6e-07 W=1.14e-06 AD=2.964e-13 AS=5.016e-13 PD=2.18e-06 PS=4.04e-06 NRD=0.912281 NRS=1.54386 m=1 nf=2 $X=419015 $Y=110805 $D=2
M94 4748 VSS 615 VSS nfet_05v0 L=7.7e-07 W=6e-07 AD=2.81613e-13 AS=2.82e-13 PD=1.84258e-06 PS=2.14e-06 NRD=0.782258 NRS=0.783333 m=1 nf=1 $X=420310 $Y=176390 $D=2
M95 615 VSS 4750 VSS nfet_05v0 L=7.7e-07 W=6e-07 AD=-2.739e-13 AS=1.416e-13 PD=-1.70545e-06 PS=8.14545e-07 NRD=-0.760833 NRS=0.393333 m=1 nf=1 $X=420310 $Y=193100 $D=2
M96 4752 VSS 615 VSS nfet_05v0 L=7.7e-07 W=6e-07 AD=1.416e-13 AS=-2.739e-13 PD=8.14545e-07 PS=-1.70545e-06 NRD=0.393333 NRS=-0.760833 m=1 nf=1 $X=420310 $Y=194390 $D=2
M97 615 VSS 4754 VSS nfet_05v0 L=7.7e-07 W=6e-07 AD=-2.739e-13 AS=1.416e-13 PD=-1.70545e-06 PS=8.14545e-07 NRD=-0.760833 NRS=0.393333 m=1 nf=1 $X=420310 $Y=211100 $D=2
M98 4756 VSS 615 VSS nfet_05v0 L=7.7e-07 W=6e-07 AD=1.416e-13 AS=-2.739e-13 PD=8.14545e-07 PS=-1.70545e-06 NRD=0.393333 NRS=-0.760833 m=1 nf=1 $X=420310 $Y=212390 $D=2
M99 615 VSS 4758 VSS nfet_05v0 L=7.7e-07 W=6e-07 AD=-2.739e-13 AS=1.416e-13 PD=-1.70545e-06 PS=8.14545e-07 NRD=-0.760833 NRS=0.393333 m=1 nf=1 $X=420310 $Y=229100 $D=2
M100 4760 VSS 615 VSS nfet_05v0 L=7.7e-07 W=6e-07 AD=1.416e-13 AS=-2.739e-13 PD=8.14545e-07 PS=-1.70545e-06 NRD=0.393333 NRS=-0.760833 m=1 nf=1 $X=420310 $Y=230390 $D=2
M101 615 VSS 4762 VSS nfet_05v0 L=7.7e-07 W=6e-07 AD=-2.739e-13 AS=1.416e-13 PD=-1.70545e-06 PS=8.14545e-07 NRD=-0.760833 NRS=0.393333 m=1 nf=1 $X=420310 $Y=247100 $D=2
M102 4764 VSS 615 VSS nfet_05v0 L=7.7e-07 W=6e-07 AD=1.416e-13 AS=-2.739e-13 PD=8.14545e-07 PS=-1.70545e-06 NRD=0.393333 NRS=-0.760833 m=1 nf=1 $X=420310 $Y=248390 $D=2
M103 615 VSS 4766 VSS nfet_05v0 L=7.7e-07 W=6e-07 AD=-2.739e-13 AS=1.416e-13 PD=-1.70545e-06 PS=8.14545e-07 NRD=-0.760833 NRS=0.393333 m=1 nf=1 $X=420310 $Y=265100 $D=2
M104 4768 VSS 615 VSS nfet_05v0 L=7.7e-07 W=6e-07 AD=1.416e-13 AS=-2.739e-13 PD=8.14545e-07 PS=-1.70545e-06 NRD=0.393333 NRS=-0.760833 m=1 nf=1 $X=420310 $Y=266390 $D=2
M105 615 VSS 4770 VSS nfet_05v0 L=7.7e-07 W=6e-07 AD=-2.739e-13 AS=1.416e-13 PD=-1.70545e-06 PS=8.14545e-07 NRD=-0.760833 NRS=0.393333 m=1 nf=1 $X=420310 $Y=283100 $D=2
M106 4772 VSS 615 VSS nfet_05v0 L=7.7e-07 W=6e-07 AD=1.416e-13 AS=-2.739e-13 PD=8.14545e-07 PS=-1.70545e-06 NRD=0.393333 NRS=-0.760833 m=1 nf=1 $X=420310 $Y=284390 $D=2
M107 615 VSS 4774 VSS nfet_05v0 L=7.7e-07 W=6e-07 AD=-2.739e-13 AS=1.416e-13 PD=-1.70545e-06 PS=8.14545e-07 NRD=-0.760833 NRS=0.393333 m=1 nf=1 $X=420310 $Y=301100 $D=2
M108 4776 VSS 615 VSS nfet_05v0 L=7.7e-07 W=6e-07 AD=1.416e-13 AS=-2.739e-13 PD=8.14545e-07 PS=-1.70545e-06 NRD=0.393333 NRS=-0.760833 m=1 nf=1 $X=420310 $Y=302390 $D=2
M109 615 804 4778 VSS nfet_05v0 L=7.7e-07 W=6e-07 AD=-2.739e-13 AS=1.416e-13 PD=-1.70545e-06 PS=8.14545e-07 NRD=-0.760833 NRS=0.393333 m=1 nf=1 $X=420310 $Y=319100 $D=2
M110 4744 804 615 VSS nfet_05v0 L=7.7e-07 W=6e-07 AD=1.416e-13 AS=-2.739e-13 PD=8.14545e-07 PS=-1.70545e-06 NRD=0.393333 NRS=-0.760833 m=1 nf=1 $X=420310 $Y=320390 $D=2
M111 615 804 4746 VSS nfet_05v0 L=7.7e-07 W=6e-07 AD=2.82e-13 AS=2.81613e-13 PD=2.14e-06 PS=1.84258e-06 NRD=0.783333 NRS=0.782258 m=1 nf=1 $X=420310 $Y=328100 $D=2
M112 VDD 4249 4251 VDD pfet_05v0 L=6e-07 W=6e-07 AD=8.52e-13 AS=2.7e-13 PD=5.32e-06 PS=2.1e-06 NRD=2.36667 NRS=0.75 m=1 nf=1 $X=12840 $Y=179690 $D=8
M113 VDD 4856 4855 VDD pfet_05v0 L=6e-07 W=6e-07 AD=8.52e-13 AS=2.7e-13 PD=5.32e-06 PS=2.1e-06 NRD=2.36667 NRS=0.75 m=1 nf=1 $X=12840 $Y=180970 $D=8
M114 VDD 4864 4863 VDD pfet_05v0 L=6e-07 W=6e-07 AD=8.52e-13 AS=2.7e-13 PD=5.32e-06 PS=2.1e-06 NRD=2.36667 NRS=0.75 m=1 nf=1 $X=12840 $Y=215690 $D=8
M115 VDD 4920 4919 VDD pfet_05v0 L=6e-07 W=6e-07 AD=8.52e-13 AS=2.7e-13 PD=5.32e-06 PS=2.1e-06 NRD=2.36667 NRS=0.75 m=1 nf=1 $X=12840 $Y=216970 $D=8
M116 VDD 4928 4927 VDD pfet_05v0 L=6e-07 W=6e-07 AD=8.52e-13 AS=2.7e-13 PD=5.32e-06 PS=2.1e-06 NRD=2.36667 NRS=0.75 m=1 nf=1 $X=12840 $Y=251690 $D=8
M117 VDD 4984 4983 VDD pfet_05v0 L=6e-07 W=6e-07 AD=8.52e-13 AS=2.7e-13 PD=5.32e-06 PS=2.1e-06 NRD=2.36667 NRS=0.75 m=1 nf=1 $X=12840 $Y=252970 $D=8
M118 VDD 4992 4991 VDD pfet_05v0 L=6e-07 W=6e-07 AD=8.52e-13 AS=2.7e-13 PD=5.32e-06 PS=2.1e-06 NRD=2.36667 NRS=0.75 m=1 nf=1 $X=12840 $Y=287690 $D=8
M119 VDD 5048 5047 VDD pfet_05v0 L=6e-07 W=6e-07 AD=8.52e-13 AS=2.7e-13 PD=5.32e-06 PS=2.1e-06 NRD=2.36667 NRS=0.75 m=1 nf=1 $X=12840 $Y=288970 $D=8
M120 VDD 5056 5055 VDD pfet_05v0 L=6e-07 W=6e-07 AD=8.52e-13 AS=2.7e-13 PD=5.32e-06 PS=2.1e-06 NRD=2.36667 NRS=0.75 m=1 nf=1 $X=12840 $Y=323690 $D=8
M121 VDD 4337 4339 VDD pfet_05v0 L=6e-07 W=6e-07 AD=8.52e-13 AS=2.7e-13 PD=5.32e-06 PS=2.1e-06 NRD=2.36667 NRS=0.75 m=1 nf=1 $X=12840 $Y=324970 $D=8
M122 4249 4251 VDD VDD pfet_05v0 L=6e-07 W=6e-07 AD=2.7e-13 AS=8.52e-13 PD=2.1e-06 PS=5.32e-06 NRD=0.75 NRS=2.36667 m=1 nf=1 $X=13980 $Y=179690 $D=8
M123 4856 4855 VDD VDD pfet_05v0 L=6e-07 W=6e-07 AD=2.7e-13 AS=8.52e-13 PD=2.1e-06 PS=5.32e-06 NRD=0.75 NRS=2.36667 m=1 nf=1 $X=13980 $Y=180970 $D=8
M124 4864 4863 VDD VDD pfet_05v0 L=6e-07 W=6e-07 AD=2.7e-13 AS=8.52e-13 PD=2.1e-06 PS=5.32e-06 NRD=0.75 NRS=2.36667 m=1 nf=1 $X=13980 $Y=215690 $D=8
M125 4920 4919 VDD VDD pfet_05v0 L=6e-07 W=6e-07 AD=2.7e-13 AS=8.52e-13 PD=2.1e-06 PS=5.32e-06 NRD=0.75 NRS=2.36667 m=1 nf=1 $X=13980 $Y=216970 $D=8
M126 4928 4927 VDD VDD pfet_05v0 L=6e-07 W=6e-07 AD=2.7e-13 AS=8.52e-13 PD=2.1e-06 PS=5.32e-06 NRD=0.75 NRS=2.36667 m=1 nf=1 $X=13980 $Y=251690 $D=8
M127 4984 4983 VDD VDD pfet_05v0 L=6e-07 W=6e-07 AD=2.7e-13 AS=8.52e-13 PD=2.1e-06 PS=5.32e-06 NRD=0.75 NRS=2.36667 m=1 nf=1 $X=13980 $Y=252970 $D=8
M128 4992 4991 VDD VDD pfet_05v0 L=6e-07 W=6e-07 AD=2.7e-13 AS=8.52e-13 PD=2.1e-06 PS=5.32e-06 NRD=0.75 NRS=2.36667 m=1 nf=1 $X=13980 $Y=287690 $D=8
M129 5048 5047 VDD VDD pfet_05v0 L=6e-07 W=6e-07 AD=2.7e-13 AS=8.52e-13 PD=2.1e-06 PS=5.32e-06 NRD=0.75 NRS=2.36667 m=1 nf=1 $X=13980 $Y=288970 $D=8
M130 5056 5055 VDD VDD pfet_05v0 L=6e-07 W=6e-07 AD=2.7e-13 AS=8.52e-13 PD=2.1e-06 PS=5.32e-06 NRD=0.75 NRS=2.36667 m=1 nf=1 $X=13980 $Y=323690 $D=8
M131 4337 4339 VDD VDD pfet_05v0 L=6e-07 W=6e-07 AD=2.7e-13 AS=8.52e-13 PD=2.1e-06 PS=5.32e-06 NRD=0.75 NRS=2.36667 m=1 nf=1 $X=13980 $Y=324970 $D=8
M132 4616 4097 VDD VDD pfet_05v0 L=6e-07 W=6.82e-06 AD=1.7732e-12 AS=5.2173e-12 PD=7.86e-06 PS=1.329e-05 NRD=0.152493 NRS=0.44868 m=1 nf=2 $X=13620 $Y=160970 $D=8
M133 4617 4097 VDD VDD pfet_05v0 L=6e-07 W=6.82e-06 AD=1.7732e-12 AS=5.2173e-12 PD=7.86e-06 PS=1.329e-05 NRD=0.152493 NRS=0.44868 m=1 nf=2 $X=13620 $Y=164845 $D=8
M134 4779 4571 VDD VDD pfet_05v0 L=6e-07 W=2.97e-06 AD=9.801e-13 AS=1.8414e-12 PD=4.29e-06 PS=6.935e-06 NRD=0.444444 NRS=0.835017 m=1 nf=2 $X=13835 $Y=112830 $D=8
M135 VDD 4245 4247 VDD pfet_05v0 L=6e-07 W=6e-07 AD=8.52e-13 AS=2.7e-13 PD=5.32e-06 PS=2.1e-06 NRD=2.36667 NRS=0.75 m=1 nf=1 $X=15840 $Y=179690 $D=8
M136 VDD 4858 4857 VDD pfet_05v0 L=6e-07 W=6e-07 AD=8.52e-13 AS=2.7e-13 PD=5.32e-06 PS=2.1e-06 NRD=2.36667 NRS=0.75 m=1 nf=1 $X=15840 $Y=180970 $D=8
M137 VDD 4866 4865 VDD pfet_05v0 L=6e-07 W=6e-07 AD=8.52e-13 AS=2.7e-13 PD=5.32e-06 PS=2.1e-06 NRD=2.36667 NRS=0.75 m=1 nf=1 $X=15840 $Y=215690 $D=8
M138 VDD 4922 4921 VDD pfet_05v0 L=6e-07 W=6e-07 AD=8.52e-13 AS=2.7e-13 PD=5.32e-06 PS=2.1e-06 NRD=2.36667 NRS=0.75 m=1 nf=1 $X=15840 $Y=216970 $D=8
M139 VDD 4930 4929 VDD pfet_05v0 L=6e-07 W=6e-07 AD=8.52e-13 AS=2.7e-13 PD=5.32e-06 PS=2.1e-06 NRD=2.36667 NRS=0.75 m=1 nf=1 $X=15840 $Y=251690 $D=8
M140 VDD 4986 4985 VDD pfet_05v0 L=6e-07 W=6e-07 AD=8.52e-13 AS=2.7e-13 PD=5.32e-06 PS=2.1e-06 NRD=2.36667 NRS=0.75 m=1 nf=1 $X=15840 $Y=252970 $D=8
M141 VDD 4994 4993 VDD pfet_05v0 L=6e-07 W=6e-07 AD=8.52e-13 AS=2.7e-13 PD=5.32e-06 PS=2.1e-06 NRD=2.36667 NRS=0.75 m=1 nf=1 $X=15840 $Y=287690 $D=8
M142 VDD 5050 5049 VDD pfet_05v0 L=6e-07 W=6e-07 AD=8.52e-13 AS=2.7e-13 PD=5.32e-06 PS=2.1e-06 NRD=2.36667 NRS=0.75 m=1 nf=1 $X=15840 $Y=288970 $D=8
M143 VDD 5058 5057 VDD pfet_05v0 L=6e-07 W=6e-07 AD=8.52e-13 AS=2.7e-13 PD=5.32e-06 PS=2.1e-06 NRD=2.36667 NRS=0.75 m=1 nf=1 $X=15840 $Y=323690 $D=8
M144 VDD 4333 4335 VDD pfet_05v0 L=6e-07 W=6e-07 AD=8.52e-13 AS=2.7e-13 PD=5.32e-06 PS=2.1e-06 NRD=2.36667 NRS=0.75 m=1 nf=1 $X=15840 $Y=324970 $D=8
M145 4245 4247 VDD VDD pfet_05v0 L=6e-07 W=6e-07 AD=2.7e-13 AS=8.52e-13 PD=2.1e-06 PS=5.32e-06 NRD=0.75 NRS=2.36667 m=1 nf=1 $X=16980 $Y=179690 $D=8
M146 4858 4857 VDD VDD pfet_05v0 L=6e-07 W=6e-07 AD=2.7e-13 AS=8.52e-13 PD=2.1e-06 PS=5.32e-06 NRD=0.75 NRS=2.36667 m=1 nf=1 $X=16980 $Y=180970 $D=8
M147 4866 4865 VDD VDD pfet_05v0 L=6e-07 W=6e-07 AD=2.7e-13 AS=8.52e-13 PD=2.1e-06 PS=5.32e-06 NRD=0.75 NRS=2.36667 m=1 nf=1 $X=16980 $Y=215690 $D=8
M148 4922 4921 VDD VDD pfet_05v0 L=6e-07 W=6e-07 AD=2.7e-13 AS=8.52e-13 PD=2.1e-06 PS=5.32e-06 NRD=0.75 NRS=2.36667 m=1 nf=1 $X=16980 $Y=216970 $D=8
M149 4930 4929 VDD VDD pfet_05v0 L=6e-07 W=6e-07 AD=2.7e-13 AS=8.52e-13 PD=2.1e-06 PS=5.32e-06 NRD=0.75 NRS=2.36667 m=1 nf=1 $X=16980 $Y=251690 $D=8
M150 4986 4985 VDD VDD pfet_05v0 L=6e-07 W=6e-07 AD=2.7e-13 AS=8.52e-13 PD=2.1e-06 PS=5.32e-06 NRD=0.75 NRS=2.36667 m=1 nf=1 $X=16980 $Y=252970 $D=8
M151 4994 4993 VDD VDD pfet_05v0 L=6e-07 W=6e-07 AD=2.7e-13 AS=8.52e-13 PD=2.1e-06 PS=5.32e-06 NRD=0.75 NRS=2.36667 m=1 nf=1 $X=16980 $Y=287690 $D=8
M152 5050 5049 VDD VDD pfet_05v0 L=6e-07 W=6e-07 AD=2.7e-13 AS=8.52e-13 PD=2.1e-06 PS=5.32e-06 NRD=0.75 NRS=2.36667 m=1 nf=1 $X=16980 $Y=288970 $D=8
M153 5058 5057 VDD VDD pfet_05v0 L=6e-07 W=6e-07 AD=2.7e-13 AS=8.52e-13 PD=2.1e-06 PS=5.32e-06 NRD=0.75 NRS=2.36667 m=1 nf=1 $X=16980 $Y=323690 $D=8
M154 4333 4335 VDD VDD pfet_05v0 L=6e-07 W=6e-07 AD=2.7e-13 AS=8.52e-13 PD=2.1e-06 PS=5.32e-06 NRD=0.75 NRS=2.36667 m=1 nf=1 $X=16980 $Y=324970 $D=8
M155 4780 4570 VDD VDD pfet_05v0 L=6e-07 W=2.97e-06 AD=9.801e-13 AS=1.83769e-12 PD=4.29e-06 PS=5.445e-06 NRD=0.444444 NRS=0.833333 m=1 nf=2 $X=16365 $Y=112830 $D=8
M156 4619 4097 VDD VDD pfet_05v0 L=6e-07 W=6.82e-06 AD=1.7732e-12 AS=4.69727e-12 PD=7.86e-06 PS=9.575e-06 NRD=0.152493 NRS=0.403959 m=1 nf=2 $X=16720 $Y=160970 $D=8
M157 4618 4097 VDD VDD pfet_05v0 L=6e-07 W=6.82e-06 AD=1.7732e-12 AS=4.69727e-12 PD=7.86e-06 PS=9.575e-06 NRD=0.152493 NRS=0.403959 m=1 nf=2 $X=16720 $Y=164845 $D=8
M158 VDD 4241 4243 VDD pfet_05v0 L=6e-07 W=6e-07 AD=8.52e-13 AS=2.7e-13 PD=5.32e-06 PS=2.1e-06 NRD=2.36667 NRS=0.75 m=1 nf=1 $X=18840 $Y=179690 $D=8
M159 VDD 4860 4859 VDD pfet_05v0 L=6e-07 W=6e-07 AD=8.52e-13 AS=2.7e-13 PD=5.32e-06 PS=2.1e-06 NRD=2.36667 NRS=0.75 m=1 nf=1 $X=18840 $Y=180970 $D=8
M160 VDD 4868 4867 VDD pfet_05v0 L=6e-07 W=6e-07 AD=8.52e-13 AS=2.7e-13 PD=5.32e-06 PS=2.1e-06 NRD=2.36667 NRS=0.75 m=1 nf=1 $X=18840 $Y=215690 $D=8
M161 VDD 4924 4923 VDD pfet_05v0 L=6e-07 W=6e-07 AD=8.52e-13 AS=2.7e-13 PD=5.32e-06 PS=2.1e-06 NRD=2.36667 NRS=0.75 m=1 nf=1 $X=18840 $Y=216970 $D=8
M162 VDD 4932 4931 VDD pfet_05v0 L=6e-07 W=6e-07 AD=8.52e-13 AS=2.7e-13 PD=5.32e-06 PS=2.1e-06 NRD=2.36667 NRS=0.75 m=1 nf=1 $X=18840 $Y=251690 $D=8
M163 VDD 4988 4987 VDD pfet_05v0 L=6e-07 W=6e-07 AD=8.52e-13 AS=2.7e-13 PD=5.32e-06 PS=2.1e-06 NRD=2.36667 NRS=0.75 m=1 nf=1 $X=18840 $Y=252970 $D=8
M164 VDD 4996 4995 VDD pfet_05v0 L=6e-07 W=6e-07 AD=8.52e-13 AS=2.7e-13 PD=5.32e-06 PS=2.1e-06 NRD=2.36667 NRS=0.75 m=1 nf=1 $X=18840 $Y=287690 $D=8
M165 VDD 5052 5051 VDD pfet_05v0 L=6e-07 W=6e-07 AD=8.52e-13 AS=2.7e-13 PD=5.32e-06 PS=2.1e-06 NRD=2.36667 NRS=0.75 m=1 nf=1 $X=18840 $Y=288970 $D=8
M166 VDD 5060 5059 VDD pfet_05v0 L=6e-07 W=6e-07 AD=8.52e-13 AS=2.7e-13 PD=5.32e-06 PS=2.1e-06 NRD=2.36667 NRS=0.75 m=1 nf=1 $X=18840 $Y=323690 $D=8
M167 VDD 4329 4331 VDD pfet_05v0 L=6e-07 W=6e-07 AD=8.52e-13 AS=2.7e-13 PD=5.32e-06 PS=2.1e-06 NRD=2.36667 NRS=0.75 m=1 nf=1 $X=18840 $Y=324970 $D=8
M168 4241 4243 VDD VDD pfet_05v0 L=6e-07 W=6e-07 AD=2.7e-13 AS=8.52e-13 PD=2.1e-06 PS=5.32e-06 NRD=0.75 NRS=2.36667 m=1 nf=1 $X=19980 $Y=179690 $D=8
M169 4860 4859 VDD VDD pfet_05v0 L=6e-07 W=6e-07 AD=2.7e-13 AS=8.52e-13 PD=2.1e-06 PS=5.32e-06 NRD=0.75 NRS=2.36667 m=1 nf=1 $X=19980 $Y=180970 $D=8
M170 4868 4867 VDD VDD pfet_05v0 L=6e-07 W=6e-07 AD=2.7e-13 AS=8.52e-13 PD=2.1e-06 PS=5.32e-06 NRD=0.75 NRS=2.36667 m=1 nf=1 $X=19980 $Y=215690 $D=8
M171 4924 4923 VDD VDD pfet_05v0 L=6e-07 W=6e-07 AD=2.7e-13 AS=8.52e-13 PD=2.1e-06 PS=5.32e-06 NRD=0.75 NRS=2.36667 m=1 nf=1 $X=19980 $Y=216970 $D=8
M172 4932 4931 VDD VDD pfet_05v0 L=6e-07 W=6e-07 AD=2.7e-13 AS=8.52e-13 PD=2.1e-06 PS=5.32e-06 NRD=0.75 NRS=2.36667 m=1 nf=1 $X=19980 $Y=251690 $D=8
M173 4988 4987 VDD VDD pfet_05v0 L=6e-07 W=6e-07 AD=2.7e-13 AS=8.52e-13 PD=2.1e-06 PS=5.32e-06 NRD=0.75 NRS=2.36667 m=1 nf=1 $X=19980 $Y=252970 $D=8
M174 4996 4995 VDD VDD pfet_05v0 L=6e-07 W=6e-07 AD=2.7e-13 AS=8.52e-13 PD=2.1e-06 PS=5.32e-06 NRD=0.75 NRS=2.36667 m=1 nf=1 $X=19980 $Y=287690 $D=8
M175 5052 5051 VDD VDD pfet_05v0 L=6e-07 W=6e-07 AD=2.7e-13 AS=8.52e-13 PD=2.1e-06 PS=5.32e-06 NRD=0.75 NRS=2.36667 m=1 nf=1 $X=19980 $Y=288970 $D=8
M176 5060 5059 VDD VDD pfet_05v0 L=6e-07 W=6e-07 AD=2.7e-13 AS=8.52e-13 PD=2.1e-06 PS=5.32e-06 NRD=0.75 NRS=2.36667 m=1 nf=1 $X=19980 $Y=323690 $D=8
M177 4329 4331 VDD VDD pfet_05v0 L=6e-07 W=6e-07 AD=2.7e-13 AS=8.52e-13 PD=2.1e-06 PS=5.32e-06 NRD=0.75 NRS=2.36667 m=1 nf=1 $X=19980 $Y=324970 $D=8
M178 4620 4097 VDD VDD pfet_05v0 L=6e-07 W=6.82e-06 AD=1.7732e-12 AS=4.69727e-12 PD=7.86e-06 PS=9.575e-06 NRD=0.152493 NRS=0.403959 m=1 nf=2 $X=19815 $Y=160970 $D=8
M179 4621 4097 VDD VDD pfet_05v0 L=6e-07 W=6.82e-06 AD=1.7732e-12 AS=4.69727e-12 PD=7.86e-06 PS=9.575e-06 NRD=0.152493 NRS=0.403959 m=1 nf=2 $X=19815 $Y=164845 $D=8
M180 4781 4569 VDD VDD pfet_05v0 L=6e-07 W=2.97e-06 AD=9.801e-13 AS=1.83769e-12 PD=4.29e-06 PS=5.445e-06 NRD=0.444444 NRS=0.833333 m=1 nf=2 $X=20030 $Y=112830 $D=8
M181 VDD 4237 4239 VDD pfet_05v0 L=6e-07 W=6e-07 AD=8.52e-13 AS=2.7e-13 PD=5.32e-06 PS=2.1e-06 NRD=2.36667 NRS=0.75 m=1 nf=1 $X=21840 $Y=179690 $D=8
M182 VDD 4862 4861 VDD pfet_05v0 L=6e-07 W=6e-07 AD=8.52e-13 AS=2.7e-13 PD=5.32e-06 PS=2.1e-06 NRD=2.36667 NRS=0.75 m=1 nf=1 $X=21840 $Y=180970 $D=8
M183 VDD 4870 4869 VDD pfet_05v0 L=6e-07 W=6e-07 AD=8.52e-13 AS=2.7e-13 PD=5.32e-06 PS=2.1e-06 NRD=2.36667 NRS=0.75 m=1 nf=1 $X=21840 $Y=215690 $D=8
M184 VDD 4926 4925 VDD pfet_05v0 L=6e-07 W=6e-07 AD=8.52e-13 AS=2.7e-13 PD=5.32e-06 PS=2.1e-06 NRD=2.36667 NRS=0.75 m=1 nf=1 $X=21840 $Y=216970 $D=8